 WAVE HEIGHT COMPUTATIONS FOR FLOOD INSURANCE STUDIES (WHAFIS VERSION 4.0G, 08_2007)
 Executed on: Thu Mar  5 16:11:16 2020
 Input file:  C:\FEMA-TransectAnalysis\LOMR-TransectAnalysis-Wells\3_whafis\whafis4\YK-75.dat                                                 
 Output file: C:\FEMA-TransectAnalysis\LOMR-TransectAnalysis-Wells\3_whafis\whafis4\YK-75.out                                                 



                                                              header                                                                
                                                     THIS IS A 100-YEAR CASE


                                       THE FOLLOWING NON-DEFAULT WIND SPEEDS ARE BEING USED
                                            WINDIF  56.14  WINDOF  56.14  WINDVH  60.00

                                                             PART1 INPUT

          IE      0.000    -18.236      1.000      1.000      8.963     23.649     13.626     56.140     -0.004      0.000
          OF     78.700    -18.550      0.000      8.965      0.000      0.000      0.000      0.000     -0.004      0.000
          OF     82.000    -18.548      0.000      8.966      0.000      0.000      0.000      0.000      0.001      0.000
          OF     85.300    -18.545      0.000      8.968      0.000      0.000      0.000      0.000      0.001      0.000
          OF     88.600    -18.543      0.000      8.970      0.000      0.000      0.000      0.000      0.001      0.000
          OF     91.900    -18.541      0.000      8.971      0.000      0.000      0.000      0.000      0.001      0.000
          OF     95.100    -18.539      0.000      8.973      0.000      0.000      0.000      0.000      0.001      0.000
          OF     98.400    -18.536      0.000      8.975      0.000      0.000      0.000      0.000      0.001      0.000
          OF    101.700    -18.534      0.000      8.977      0.000      0.000      0.000      0.000      0.001      0.000
          OF    105.000    -18.532      0.000      8.978      0.000      0.000      0.000      0.000      0.001      0.000
          OF    108.300    -18.529      0.000      8.980      0.000      0.000      0.000      0.000      0.001      0.000
          OF    111.500    -18.527      0.000      8.982      0.000      0.000      0.000      0.000      0.001      0.000
          OF    114.800    -18.525      0.000      8.983      0.000      0.000      0.000      0.000      0.001      0.000
          OF    118.100    -18.522      0.000      8.985      0.000      0.000      0.000      0.000      0.001      0.000
          OF    121.400    -18.520      0.000      8.987      0.000      0.000      0.000      0.000      0.001      0.000
          OF    124.700    -18.518      0.000      8.988      0.000      0.000      0.000      0.000      0.001      0.000
          OF    128.000    -18.516      0.000      8.990      0.000      0.000      0.000      0.000      0.001      0.000
          OF    131.200    -18.513      0.000      8.991      0.000      0.000      0.000      0.000      0.001      0.000
          OF    134.500    -18.511      0.000      8.993      0.000      0.000      0.000      0.000      0.001      0.000
          OF    137.800    -18.509      0.000      8.995      0.000      0.000      0.000      0.000      0.001      0.000
          OF    141.100    -18.506      0.000      8.996      0.000      0.000      0.000      0.000      0.001      0.000
          OF    144.400    -18.504      0.000      8.998      0.000      0.000      0.000      0.000      0.001      0.000
          OF    147.600    -18.502      0.000      8.999      0.000      0.000      0.000      0.000      0.001      0.000
          OF    150.900    -18.499      0.000      9.001      0.000      0.000      0.000      0.000      0.001      0.000
          OF    154.200    -18.497      0.000      9.002      0.000      0.000      0.000      0.000      0.001      0.000
          OF    157.500    -18.495      0.000      9.004      0.000      0.000      0.000      0.000      0.001      0.000
          OF    160.800    -18.493      0.000      9.005      0.000      0.000      0.000      0.000      0.001      0.000
          OF    164.000    -18.490      0.000      9.007      0.000      0.000      0.000      0.000      0.001      0.000
          OF    167.300    -18.488      0.000      9.008      0.000      0.000      0.000      0.000      0.003      0.000
          OF    170.600    -18.472      0.000      9.009      0.000      0.000      0.000      0.000      0.007      0.000
          OF    173.900    -18.442      0.000      9.011      0.000      0.000      0.000      0.000      0.012      0.000
          OF    177.200    -18.391      0.000      9.012      0.000      0.000      0.000      0.000      0.015      0.000
          OF    180.400    -18.344      0.000      9.013      0.000      0.000      0.000      0.000      0.014      0.000
          OF    183.700    -18.300      0.000      9.014      0.000      0.000      0.000      0.000      0.013      0.000
          OF    187.000    -18.256      0.000      9.015      0.000      0.000      0.000      0.000      0.014      0.000
          OF    190.300    -18.211      0.000      9.016      0.000      0.000      0.000      0.000      0.014      0.000
          OF    193.600    -18.167      0.000      9.017      0.000      0.000      0.000      0.000      0.014      0.000
          OF    196.800    -18.123      0.000      9.018      0.000      0.000      0.000      0.000      0.014      0.000
          OF    200.100    -18.078      0.000      9.019      0.000      0.000      0.000      0.000      0.014      0.000
          OF    203.400    -18.034      0.000      9.021      0.000      0.000      0.000      0.000      0.013      0.000
          OF    206.700    -17.990      0.000      9.022      0.000      0.000      0.000      0.000      0.013      0.000
          OF    210.000    -17.946      0.000      9.023      0.000      0.000      0.000      0.000      0.014      0.000
          OF    213.300    -17.901      0.000      9.024      0.000      0.000      0.000      0.000      0.014      0.000
          OF    216.500    -17.857      0.000      9.025      0.000      0.000      0.000      0.000      0.014      0.000
          OF    219.800    -17.813      0.000      9.026      0.000      0.000      0.000      0.000      0.014      0.000
          OF    223.100    -17.768      0.000      9.028      0.000      0.000      0.000      0.000      0.014      0.000
          OF    226.400    -17.724      0.000      9.029      0.000      0.000      0.000      0.000      0.013      0.000
          OF    229.700    -17.680      0.000      9.030      0.000      0.000      0.000      0.000      0.014      0.000
          OF    232.900    -17.636      0.000      9.031      0.000      0.000      0.000      0.000      0.014      0.000
          OF    236.200    -17.591      0.000      9.032      0.000      0.000      0.000      0.000      0.014      0.000
          OF    239.500    -17.547      0.000      9.033      0.000      0.000      0.000      0.000      0.013      0.000
          OF    242.800    -17.503      0.000      9.035      0.000      0.000      0.000      0.000      0.014      0.000
          OF    246.100    -17.458      0.000      9.036      0.000      0.000      0.000      0.000      0.014      0.000
          OF    249.300    -17.414      0.000      9.037      0.000      0.000      0.000      0.000      0.014      0.000
          OF    252.600    -17.370      0.000      9.039      0.000      0.000      0.000      0.000      0.013      0.000
          OF    255.900    -17.326      0.000      9.040      0.000      0.000      0.000      0.000      0.014      0.000
          OF    259.200    -17.281      0.000      9.041      0.000      0.000      0.000      0.000      0.014      0.000
          OF    262.500    -17.237      0.000      9.043      0.000      0.000      0.000      0.000      0.014      0.000
          OF    265.700    -17.193      0.000      9.044      0.000      0.000      0.000      0.000      0.014      0.000
          OF    269.000    -17.148      0.000      9.045      0.000      0.000      0.000      0.000      0.014      0.000
          OF    272.300    -17.104      0.000      9.047      0.000      0.000      0.000      0.000      0.013      0.000
          OF    275.600    -17.060      0.000      9.048      0.000      0.000      0.000      0.000      0.014      0.000
          OF    278.900    -17.015      0.000      9.049      0.000      0.000      0.000      0.000      0.014      0.000
          OF    282.200    -16.971      0.000      9.050      0.000      0.000      0.000      0.000      0.013      0.000
          OF    285.400    -16.933      0.000      9.052      0.000      0.000      0.000      0.000      0.011      0.000
          OF    288.700    -16.898      0.000      9.053      0.000      0.000      0.000      0.000      0.011      0.000
          OF    292.000    -16.862      0.000      9.054      0.000      0.000      0.000      0.000      0.011      0.000
          OF    295.300    -16.827      0.000      9.056      0.000      0.000      0.000      0.000      0.011      0.000
          OF    298.600    -16.791      0.000      9.057      0.000      0.000      0.000      0.000      0.011      0.000
          OF    301.800    -16.756      0.000      9.059      0.000      0.000      0.000      0.000      0.011      0.000
          OF    305.100    -16.720      0.000      9.060      0.000      0.000      0.000      0.000      0.011      0.000
          OF    308.400    -16.685      0.000      9.061      0.000      0.000      0.000      0.000      0.011      0.000
          OF    311.700    -16.650      0.000      9.063      0.000      0.000      0.000      0.000      0.011      0.000
          OF    315.000    -16.614      0.000      9.064      0.000      0.000      0.000      0.000      0.011      0.000
          OF    318.200    -16.579      0.000      9.066      0.000      0.000      0.000      0.000      0.011      0.000
          OF    321.500    -16.543      0.000      9.066      0.000      0.000      0.000      0.000      0.011      0.000
          OF    324.800    -16.508      0.000      9.068      0.000      0.000      0.000      0.000      0.011      0.000
          OF    328.100    -16.472      0.000      9.069      0.000      0.000      0.000      0.000      0.011      0.000
          OF    331.400    -16.437      0.000      9.071      0.000      0.000      0.000      0.000      0.011      0.000
          OF    334.600    -16.401      0.000      9.072      0.000      0.000      0.000      0.000      0.011      0.000
          OF    337.900    -16.366      0.000      9.073      0.000      0.000      0.000      0.000      0.011      0.000
          OF    341.200    -16.330      0.000      9.075      0.000      0.000      0.000      0.000      0.011      0.000
          OF    344.500    -16.295      0.000      9.076      0.000      0.000      0.000      0.000      0.011      0.000
          OF    347.800    -16.259      0.000      9.077      0.000      0.000      0.000      0.000      0.011      0.000
          OF    351.000    -16.224      0.000      9.078      0.000      0.000      0.000      0.000      0.011      0.000
          OF    354.300    -16.188      0.000      9.080      0.000      0.000      0.000      0.000      0.011      0.000
          OF    357.600    -16.150      0.000      9.081      0.000      0.000      0.000      0.000      0.012      0.000
          OF    360.900    -16.110      0.000      9.082      0.000      0.000      0.000      0.000      0.012      0.000
          OF    364.200    -16.070      0.000      9.083      0.000      0.000      0.000      0.000      0.012      0.000
          OF    367.500    -16.031      0.000      9.085      0.000      0.000      0.000      0.000      0.012      0.000
          OF    370.700    -15.991      0.000      9.086      0.000      0.000      0.000      0.000      0.012      0.000
          OF    374.000    -15.951      0.000      9.087      0.000      0.000      0.000      0.000      0.012      0.000
          OF    377.300    -15.912      0.000      9.089      0.000      0.000      0.000      0.000      0.012      0.000
          OF    380.600    -15.872      0.000      9.090      0.000      0.000      0.000      0.000      0.012      0.000
          OF    383.900    -15.832      0.000      9.091      0.000      0.000      0.000      0.000      0.012      0.000
          OF    387.100    -15.793      0.000      9.092      0.000      0.000      0.000      0.000      0.012      0.000
          OF    390.400    -15.753      0.000      9.094      0.000      0.000      0.000      0.000      0.012      0.000
          OF    393.700    -15.716      0.000      9.095      0.000      0.000      0.000      0.000      0.007      0.000
          OF    397.000    -15.704      0.000      9.097      0.000      0.000      0.000      0.000      0.003      0.000
          OF    400.300    -15.694      0.000      9.098      0.000      0.000      0.000      0.000      0.003      0.000
          OF    403.500    -15.684      0.000      9.099      0.000      0.000      0.000      0.000      0.003      0.000
          OF    406.800    -15.674      0.000      9.101      0.000      0.000      0.000      0.000      0.003      0.000
          OF    410.100    -15.664      0.000      9.102      0.000      0.000      0.000      0.000      0.003      0.000
          OF    413.400    -15.654      0.000      9.104      0.000      0.000      0.000      0.000      0.003      0.000
          OF    416.700    -15.644      0.000      9.105      0.000      0.000      0.000      0.000      0.003      0.000
          OF    419.900    -15.635      0.000      9.107      0.000      0.000      0.000      0.000      0.003      0.000
          OF    423.200    -15.625      0.000      9.108      0.000      0.000      0.000      0.000      0.003      0.000
          OF    426.500    -15.615      0.000      9.110      0.000      0.000      0.000      0.000      0.003      0.000
          OF    429.800    -15.605      0.000      9.111      0.000      0.000      0.000      0.000      0.003      0.000
          OF    433.100    -15.595      0.000      9.113      0.000      0.000      0.000      0.000      0.003      0.000
          OF    436.400    -15.585      0.000      9.114      0.000      0.000      0.000      0.000      0.003      0.000
          OF    439.600    -15.575      0.000      9.115      0.000      0.000      0.000      0.000      0.003      0.000
          OF    442.900    -15.565      0.000      9.117      0.000      0.000      0.000      0.000      0.003      0.000
          OF    446.200    -15.555      0.000      9.118      0.000      0.000      0.000      0.000      0.003      0.000
          OF    449.500    -15.545      0.000      9.119      0.000      0.000      0.000      0.000      0.003      0.000
          OF    452.800    -15.536      0.000      9.120      0.000      0.000      0.000      0.000      0.003      0.000
          OF    456.000    -15.526      0.000      9.122      0.000      0.000      0.000      0.000      0.003      0.000
          OF    459.300    -15.516      0.000      9.123      0.000      0.000      0.000      0.000      0.003      0.000
          OF    462.600    -15.506      0.000      9.124      0.000      0.000      0.000      0.000      0.003      0.000
          OF    465.900    -15.496      0.000      9.125      0.000      0.000      0.000      0.000      0.003      0.000
          OF    469.200    -15.486      0.000      9.127      0.000      0.000      0.000      0.000      0.003      0.000
          OF    472.400    -15.476      0.000      9.128      0.000      0.000      0.000      0.000      0.003      0.000
          OF    475.700    -15.466      0.000      9.129      0.000      0.000      0.000      0.000      0.003      0.000
          OF    479.000    -15.456      0.000      9.130      0.000      0.000      0.000      0.000      0.003      0.000
          OF    482.300    -15.447      0.000      9.131      0.000      0.000      0.000      0.000      0.003      0.000
          OF    485.600    -15.437      0.000      9.132      0.000      0.000      0.000      0.000      0.003      0.000
          OF    488.800    -15.427      0.000      9.133      0.000      0.000      0.000      0.000      0.003      0.000
          OF    492.100    -15.417      0.000      9.134      0.000      0.000      0.000      0.000      0.003      0.000
          OF    495.400    -15.407      0.000      9.136      0.000      0.000      0.000      0.000      0.003      0.000
          OF    498.700    -15.397      0.000      9.137      0.000      0.000      0.000      0.000      0.003      0.000
          OF    502.000    -15.385      0.000      9.138      0.000      0.000      0.000      0.000      0.005      0.000
          OF    505.200    -15.362      0.000      9.139      0.000      0.000      0.000      0.000      0.013      0.000
          OF    508.500    -15.303      0.000      9.139      0.000      0.000      0.000      0.000      0.018      0.000
          OF    511.800    -15.242      0.000      9.140      0.000      0.000      0.000      0.000      0.020      0.000
          OF    515.100    -15.172      0.000      9.141      0.000      0.000      0.000      0.000      0.021      0.000
          OF    518.400    -15.101      0.000      9.141      0.000      0.000      0.000      0.000      0.022      0.000
          OF    521.700    -15.030      0.000      9.142      0.000      0.000      0.000      0.000      0.022      0.000
          OF    524.900    -14.959      0.000      9.142      0.000      0.000      0.000      0.000      0.022      0.000
          OF    528.200    -14.888      0.000      9.143      0.000      0.000      0.000      0.000      0.021      0.000
          OF    531.500    -14.818      0.000      9.144      0.000      0.000      0.000      0.000      0.021      0.000
          OF    534.800    -14.747      0.000      9.144      0.000      0.000      0.000      0.000      0.022      0.000
          OF    538.100    -14.676      0.000      9.145      0.000      0.000      0.000      0.000      0.022      0.000
          OF    541.300    -14.605      0.000      9.146      0.000      0.000      0.000      0.000      0.022      0.000
          OF    544.600    -14.534      0.000      9.146      0.000      0.000      0.000      0.000      0.022      0.000
          OF    547.900    -14.463      0.000      9.147      0.000      0.000      0.000      0.000      0.021      0.000
          OF    551.200    -14.393      0.000      9.148      0.000      0.000      0.000      0.000      0.021      0.000
          OF    554.500    -14.322      0.000      9.149      0.000      0.000      0.000      0.000      0.022      0.000
          OF    557.700    -14.251      0.000      9.150      0.000      0.000      0.000      0.000      0.022      0.000
          OF    561.000    -14.180      0.000      9.150      0.000      0.000      0.000      0.000      0.022      0.000
          OF    564.300    -14.109      0.000      9.151      0.000      0.000      0.000      0.000      0.021      0.000
          OF    567.600    -14.039      0.000      9.152      0.000      0.000      0.000      0.000      0.021      0.000
          OF    570.900    -13.968      0.000      9.153      0.000      0.000      0.000      0.000      0.022      0.000
          OF    574.100    -13.897      0.000      9.154      0.000      0.000      0.000      0.000      0.022      0.000
          OF    577.400    -13.826      0.000      9.155      0.000      0.000      0.000      0.000      0.022      0.000
          OF    580.700    -13.755      0.000      9.156      0.000      0.000      0.000      0.000      0.022      0.000
          OF    584.000    -13.684      0.000      9.156      0.000      0.000      0.000      0.000      0.021      0.000
          OF    587.300    -13.614      0.000      9.157      0.000      0.000      0.000      0.000      0.022      0.000
          OF    590.500    -13.543      0.000      9.158      0.000      0.000      0.000      0.000      0.022      0.000
          OF    593.800    -13.472      0.000      9.160      0.000      0.000      0.000      0.000      0.022      0.000
          OF    597.100    -13.401      0.000      9.160      0.000      0.000      0.000      0.000      0.022      0.000
          OF    600.400    -13.330      0.000      9.161      0.000      0.000      0.000      0.000      0.021      0.000
          OF    603.700    -13.260      0.000      9.162      0.000      0.000      0.000      0.000      0.021      0.000
          OF    607.000    -13.189      0.000      9.163      0.000      0.000      0.000      0.000      0.022      0.000
          OF    610.200    -13.118      0.000      9.165      0.000      0.000      0.000      0.000      0.023      0.000
          OF    613.500    -13.041      0.000      9.166      0.000      0.000      0.000      0.000      0.023      0.000
          OF    616.800    -12.965      0.000      9.166      0.000      0.000      0.000      0.000      0.023      0.000
          OF    620.100    -12.889      0.000      9.167      0.000      0.000      0.000      0.000      0.023      0.000
          OF    623.400    -12.812      0.000      9.169      0.000      0.000      0.000      0.000      0.023      0.000
          OF    626.600    -12.736      0.000      9.170      0.000      0.000      0.000      0.000      0.023      0.000
          OF    629.900    -12.660      0.000      9.171      0.000      0.000      0.000      0.000      0.023      0.000
          OF    633.200    -12.583      0.000      9.172      0.000      0.000      0.000      0.000      0.023      0.000
          OF    636.500    -12.507      0.000      9.173      0.000      0.000      0.000      0.000      0.023      0.000
          OF    639.800    -12.431      0.000      9.174      0.000      0.000      0.000      0.000      0.023      0.000
          OF    643.000    -12.354      0.000      9.175      0.000      0.000      0.000      0.000      0.023      0.000
          OF    646.300    -12.278      0.000      9.177      0.000      0.000      0.000      0.000      0.023      0.000
          OF    649.600    -12.202      0.000      9.178      0.000      0.000      0.000      0.000      0.023      0.000
          OF    652.900    -12.125      0.000      9.179      0.000      0.000      0.000      0.000      0.023      0.000
          OF    656.200    -12.049      0.000      9.180      0.000      0.000      0.000      0.000      0.023      0.000
          OF    659.400    -11.973      0.000      9.182      0.000      0.000      0.000      0.000      0.023      0.000
          OF    662.700    -11.896      0.000      9.183      0.000      0.000      0.000      0.000      0.023      0.000
          OF    666.000    -11.820      0.000      9.184      0.000      0.000      0.000      0.000      0.023      0.000
          OF    669.300    -11.744      0.000      9.186      0.000      0.000      0.000      0.000      0.023      0.000
          OF    672.600    -11.670      0.000      9.187      0.000      0.000      0.000      0.000      0.023      0.000
          OF    675.900    -11.595      0.000      9.188      0.000      0.000      0.000      0.000      0.023      0.000
          OF    679.100    -11.520      0.000      9.189      0.000      0.000      0.000      0.000      0.023      0.000
          OF    682.400    -11.446      0.000      9.191      0.000      0.000      0.000      0.000      0.023      0.000
          OF    685.700    -11.371      0.000      9.192      0.000      0.000      0.000      0.000      0.023      0.000
          OF    689.000    -11.297      0.000      9.194      0.000      0.000      0.000      0.000      0.023      0.000
          OF    692.300    -11.222      0.000      9.195      0.000      0.000      0.000      0.000      0.023      0.000
          OF    695.500    -11.148      0.000      9.197      0.000      0.000      0.000      0.000      0.023      0.000
          OF    698.800    -11.073      0.000      9.198      0.000      0.000      0.000      0.000      0.022      0.000
          OF    702.100    -11.000      0.000      9.200      0.000      0.000      0.000      0.000      0.019      0.000
          OF    705.400    -10.947      0.000      9.201      0.000      0.000      0.000      0.000      0.016      0.000
          OF    708.700    -10.894      0.000      9.203      0.000      0.000      0.000      0.000      0.016      0.000
          OF    711.900    -10.841      0.000      9.205      0.000      0.000      0.000      0.000      0.016      0.000
          OF    715.200    -10.788      0.000      9.206      0.000      0.000      0.000      0.000      0.016      0.000
          OF    718.500    -10.734      0.000      9.208      0.000      0.000      0.000      0.000      0.016      0.000
          OF    721.800    -10.681      0.000      9.210      0.000      0.000      0.000      0.000      0.016      0.000
          OF    725.100    -10.628      0.000      9.211      0.000      0.000      0.000      0.000      0.016      0.000
          OF    728.300    -10.575      0.000      9.213      0.000      0.000      0.000      0.000      0.016      0.000
          OF    731.600    -10.521      0.000      9.215      0.000      0.000      0.000      0.000      0.016      0.000
          OF    734.900    -10.468      0.000      9.216      0.000      0.000      0.000      0.000      0.016      0.000
          OF    738.200    -10.415      0.000      9.218      0.000      0.000      0.000      0.000      0.016      0.000
          OF    741.500    -10.362      0.000      9.220      0.000      0.000      0.000      0.000      0.016      0.000
          OF    744.700    -10.308      0.000      9.222      0.000      0.000      0.000      0.000      0.016      0.000
          OF    748.000    -10.255      0.000      9.224      0.000      0.000      0.000      0.000      0.016      0.000
          OF    751.300    -10.202      0.000      9.225      0.000      0.000      0.000      0.000      0.016      0.000
          OF    754.600    -10.149      0.000      9.227      0.000      0.000      0.000      0.000      0.016      0.000
          OF    757.900    -10.096      0.000      9.229      0.000      0.000      0.000      0.000      0.016      0.000
          OF    761.200    -10.042      0.000      9.230      0.000      0.000      0.000      0.000      0.016      0.000
          OF    764.400     -9.990      0.000      9.232      0.000      0.000      0.000      0.000      0.016      0.000
          OF    767.700     -9.936      0.000      9.234      0.000      0.000      0.000      0.000      0.016      0.000
          OF    771.000     -9.883      0.000      9.236      0.000      0.000      0.000      0.000      0.016      0.000
          OF    774.300     -9.830      0.000      9.238      0.000      0.000      0.000      0.000      0.016      0.000
          OF    777.600     -9.777      0.000      9.239      0.000      0.000      0.000      0.000      0.016      0.000
          OF    780.800     -9.723      0.000      9.241      0.000      0.000      0.000      0.000      0.016      0.000
          OF    784.100     -9.670      0.000      9.243      0.000      0.000      0.000      0.000      0.015      0.000
          OF    787.400     -9.624      0.000      9.245      0.000      0.000      0.000      0.000      0.014      0.000
          OF    790.700     -9.578      0.000      9.246      0.000      0.000      0.000      0.000      0.014      0.000
          OF    794.000     -9.533      0.000      9.248      0.000      0.000      0.000      0.000      0.014      0.000
          OF    797.200     -9.488      0.000      9.250      0.000      0.000      0.000      0.000      0.014      0.000
          OF    800.500     -9.439      0.000      9.252      0.000      0.000      0.000      0.000      0.015      0.000
          OF    803.800     -9.391      0.000      9.253      0.000      0.000      0.000      0.000      0.014      0.000
          OF    807.100     -9.346      0.000      9.255      0.000      0.000      0.000      0.000      0.014      0.000
          OF    810.400     -9.300      0.000      9.257      0.000      0.000      0.000      0.000      0.014      0.000
          OF    813.600     -9.254      0.000      9.259      0.000      0.000      0.000      0.000      0.014      0.000
          OF    816.900     -9.208      0.000      9.261      0.000      0.000      0.000      0.000      0.014      0.000
          OF    820.200     -9.162      0.000      9.263      0.000      0.000      0.000      0.000      0.014      0.000
          OF    823.500     -9.116      0.000      9.264      0.000      0.000      0.000      0.000      0.014      0.000
          OF    826.800     -9.071      0.000      9.267      0.000      0.000      0.000      0.000      0.014      0.000
          OF    830.100     -9.025      0.000      9.268      0.000      0.000      0.000      0.000      0.014      0.000
          OF    833.300     -8.979      0.000      9.270      0.000      0.000      0.000      0.000      0.014      0.000
          OF    836.600     -8.933      0.000      9.272      0.000      0.000      0.000      0.000      0.014      0.000
          OF    839.900     -8.887      0.000      9.274      0.000      0.000      0.000      0.000      0.014      0.000
          OF    843.200     -8.841      0.000      9.275      0.000      0.000      0.000      0.000      0.014      0.000
          OF    846.500     -8.795      0.000      9.277      0.000      0.000      0.000      0.000      0.014      0.000
          OF    849.700     -8.750      0.000      9.279      0.000      0.000      0.000      0.000      0.014      0.000
          OF    853.000     -8.704      0.000      9.281      0.000      0.000      0.000      0.000      0.014      0.000
          OF    856.300     -8.658      0.000      9.282      0.000      0.000      0.000      0.000      0.014      0.000
          OF    859.600     -8.612      0.000      9.284      0.000      0.000      0.000      0.000      0.014      0.000
          OF    862.900     -8.566      0.000      9.286      0.000      0.000      0.000      0.000      0.014      0.000
          OF    866.100     -8.520      0.000      9.288      0.000      0.000      0.000      0.000      0.014      0.000
          OF    869.400     -8.474      0.000      9.289      0.000      0.000      0.000      0.000      0.014      0.000
          OF    872.700     -8.429      0.000      9.291      0.000      0.000      0.000      0.000      0.014      0.000
          OF    876.000     -8.383      0.000      9.293      0.000      0.000      0.000      0.000      0.014      0.000
          OF    879.300     -8.337      0.000      9.295      0.000      0.000      0.000      0.000      0.014      0.000
          OF    882.500     -8.291      0.000      9.297      0.000      0.000      0.000      0.000      0.014      0.000
          OF    885.800     -8.245      0.000      9.298      0.000      0.000      0.000      0.000      0.014      0.000
          OF    889.100     -8.199      0.000      9.300      0.000      0.000      0.000      0.000      0.014      0.000
          OF    892.400     -8.151      0.000      9.302      0.000      0.000      0.000      0.000      0.026      0.000
          OF    895.700     -8.028      0.000      9.303      0.000      0.000      0.000      0.000      0.040      0.000
          OF    898.900     -7.894      0.000      9.304      0.000      0.000      0.000      0.000      0.041      0.000
          OF    902.200     -7.759      0.000      9.305      0.000      0.000      0.000      0.000      0.041      0.000
          OF    905.500     -7.625      0.000      9.307      0.000      0.000      0.000      0.000      0.041      0.000
          OF    908.800     -7.490      0.000      9.308      0.000      0.000      0.000      0.000      0.041      0.000
          OF    912.100     -7.356      0.000      9.309      0.000      0.000      0.000      0.000      0.041      0.000
          OF    915.400     -7.221      0.000      9.310      0.000      0.000      0.000      0.000      0.041      0.000
          OF    918.600     -7.087      0.000      9.312      0.000      0.000      0.000      0.000      0.041      0.000
          OF    921.900     -6.952      0.000      9.314      0.000      0.000      0.000      0.000      0.041      0.000
          OF    925.200     -6.818      0.000      9.315      0.000      0.000      0.000      0.000      0.041      0.000
          OF    928.500     -6.683      0.000      9.317      0.000      0.000      0.000      0.000      0.041      0.000
          OF    931.800     -6.549      0.000      9.319      0.000      0.000      0.000      0.000      0.041      0.000
          OF    935.000     -6.414      0.000      9.321      0.000      0.000      0.000      0.000      0.041      0.000
          OF    938.300     -6.280      0.000      9.323      0.000      0.000      0.000      0.000      0.041      0.000
          OF    941.600     -6.145      0.000      9.325      0.000      0.000      0.000      0.000      0.041      0.000
          OF    944.900     -6.010      0.000      9.327      0.000      0.000      0.000      0.000      0.041      0.000
          OF    948.200     -5.876      0.000      9.329      0.000      0.000      0.000      0.000      0.036      0.000
          OF    951.400     -5.776      0.000      9.332      0.000      0.000      0.000      0.000      0.026      0.000
          OF    954.700     -5.707      0.000      9.335      0.000      0.000      0.000      0.000      0.021      0.000
          OF    958.000     -5.639      0.000      9.338      0.000      0.000      0.000      0.000      0.021      0.000
          OF    961.300     -5.570      0.000      9.341      0.000      0.000      0.000      0.000      0.021      0.000
          OF    964.600     -5.502      0.000      9.344      0.000      0.000      0.000      0.000      0.021      0.000
          OF    967.800     -5.433      0.000      9.347      0.000      0.000      0.000      0.000      0.021      0.000
          OF    971.100     -5.365      0.000      9.351      0.000      0.000      0.000      0.000      0.021      0.000
          OF    974.400     -5.296      0.000      9.354      0.000      0.000      0.000      0.000      0.021      0.000
          OF    977.700     -5.227      0.000      9.357      0.000      0.000      0.000      0.000      0.021      0.000
          OF    981.000     -5.159      0.000      9.359      0.000      0.000      0.000      0.000      0.021      0.000
          OF    984.200     -5.090      0.000      9.362      0.000      0.000      0.000      0.000      0.021      0.000
          OF    987.500     -5.022      0.000      9.366      0.000      0.000      0.000      0.000      0.021      0.000
          OF    990.800     -4.953      0.000      9.368      0.000      0.000      0.000      0.000      0.013      0.000
          OF    994.100     -4.939      0.000      9.372      0.000      0.000      0.000      0.000      0.004      0.000
          OF    997.400     -4.929      0.000      9.376      0.000      0.000      0.000      0.000      0.003      0.000
          OF   1000.700     -4.919      0.000      9.379      0.000      0.000      0.000      0.000      0.003      0.000
          OF   1003.900     -4.909      0.000      9.382      0.000      0.000      0.000      0.000      0.003      0.000
          OF   1007.200     -4.898      0.000      9.385      0.000      0.000      0.000      0.000      0.003      0.000
          OF   1010.500     -4.888      0.000      9.389      0.000      0.000      0.000      0.000      0.003      0.000
          OF   1013.800     -4.877      0.000      9.392      0.000      0.000      0.000      0.000      0.003      0.000
          OF   1017.100     -4.867      0.000      9.395      0.000      0.000      0.000      0.000      0.003      0.000
          OF   1020.300     -4.857      0.000      9.398      0.000      0.000      0.000      0.000      0.003      0.000
          OF   1023.600     -4.846      0.000      9.401      0.000      0.000      0.000      0.000      0.003      0.000
          OF   1026.900     -4.836      0.000      9.403      0.000      0.000      0.000      0.000      0.003      0.000
          OF   1030.200     -4.826      0.000      9.406      0.000      0.000      0.000      0.000      0.003      0.000
          OF   1033.500     -4.815      0.000      9.408      0.000      0.000      0.000      0.000      0.003      0.000
          OF   1036.700     -4.805      0.000      9.411      0.000      0.000      0.000      0.000      0.003      0.000
          OF   1040.000     -4.794      0.000      9.413      0.000      0.000      0.000      0.000      0.003      0.000
          OF   1043.300     -4.784      0.000      9.416      0.000      0.000      0.000      0.000      0.003      0.000
          OF   1046.600     -4.774      0.000      9.418      0.000      0.000      0.000      0.000      0.003      0.000
          OF   1049.900     -4.763      0.000      9.420      0.000      0.000      0.000      0.000      0.003      0.000
          OF   1053.100     -4.753      0.000      9.422      0.000      0.000      0.000      0.000      0.003      0.000
          OF   1056.400     -4.743      0.000      9.425      0.000      0.000      0.000      0.000      0.003      0.000
          OF   1059.700     -4.732      0.000      9.427      0.000      0.000      0.000      0.000      0.010      0.000
          OF   1063.000     -4.676      0.000      9.429      0.000      0.000      0.000      0.000      0.020      0.000
          OF   1066.300     -4.599      0.000      9.430      0.000      0.000      0.000      0.000      0.023      0.000
          OF   1069.600     -4.522      0.000      9.432      0.000      0.000      0.000      0.000      0.024      0.000
          OF   1072.800     -4.445      0.000      9.433      0.000      0.000      0.000      0.000      0.024      0.000
          OF   1076.100     -4.368      0.000      9.434      0.000      0.000      0.000      0.000      0.023      0.000
          OF   1079.400     -4.291      0.000      9.436      0.000      0.000      0.000      0.000      0.023      0.000
          OF   1082.700     -4.213      0.000      9.438      0.000      0.000      0.000      0.000      0.023      0.000
          OF   1086.000     -4.136      0.000      9.439      0.000      0.000      0.000      0.000      0.023      0.000
          OF   1089.200     -4.060      0.000      9.441      0.000      0.000      0.000      0.000      0.018      0.000
          OF   1092.500     -4.016      0.000      9.443      0.000      0.000      0.000      0.000      0.013      0.000
          OF   1095.800     -3.976      0.000      9.445      0.000      0.000      0.000      0.000      0.012      0.000
          OF   1099.100     -3.937      0.000      9.447      0.000      0.000      0.000      0.000      0.012      0.000
          OF   1102.400     -3.897      0.000      9.449      0.000      0.000      0.000      0.000      0.012      0.000
          OF   1105.600     -3.857      0.000      9.451      0.000      0.000      0.000      0.000      0.012      0.000
          OF   1108.900     -3.817      0.000      9.453      0.000      0.000      0.000      0.000      0.012      0.000
          OF   1112.200     -3.777      0.000      9.455      0.000      0.000      0.000      0.000      0.012      0.000
          OF   1115.500     -3.737      0.000      9.457      0.000      0.000      0.000      0.000      0.012      0.000
          OF   1118.800     -3.697      0.000      9.459      0.000      0.000      0.000      0.000      0.012      0.000
          OF   1122.000     -3.658      0.000      9.461      0.000      0.000      0.000      0.000      0.012      0.000
          OF   1125.300     -3.618      0.000      9.463      0.000      0.000      0.000      0.000      0.012      0.000
          OF   1128.600     -3.578      0.000      9.465      0.000      0.000      0.000      0.000      0.012      0.000
          OF   1131.900     -3.538      0.000      9.467      0.000      0.000      0.000      0.000      0.012      0.000
          OF   1135.200     -3.498      0.000      9.469      0.000      0.000      0.000      0.000      0.012      0.000
          OF   1138.400     -3.458      0.000      9.471      0.000      0.000      0.000      0.000      0.012      0.000
          OF   1141.700     -3.418      0.000      9.472      0.000      0.000      0.000      0.000      0.012      0.000
          OF   1145.000     -3.378      0.000      9.474      0.000      0.000      0.000      0.000      0.012      0.000
          OF   1148.300     -3.339      0.000      9.476      0.000      0.000      0.000      0.000      0.012      0.000
          OF   1151.600     -3.299      0.000      9.478      0.000      0.000      0.000      0.000      0.012      0.000
          OF   1154.900     -3.259      0.000      9.480      0.000      0.000      0.000      0.000      0.012      0.000
          OF   1158.100     -3.219      0.000      9.481      0.000      0.000      0.000      0.000      0.012      0.000
          OF   1161.400     -3.179      0.000      9.483      0.000      0.000      0.000      0.000      0.012      0.000
          OF   1164.700     -3.139      0.000      9.485      0.000      0.000      0.000      0.000      0.012      0.000
          OF   1168.000     -3.099      0.000      9.487      0.000      0.000      0.000      0.000      0.012      0.000
          OF   1171.300     -3.059      0.000      9.488      0.000      0.000      0.000      0.000      0.012      0.000
          OF   1174.500     -3.020      0.000      9.490      0.000      0.000      0.000      0.000      0.012      0.000
          OF   1177.800     -2.980      0.000      9.492      0.000      0.000      0.000      0.000      0.012      0.000
          OF   1181.100     -2.940      0.000      9.494      0.000      0.000      0.000      0.000      0.012      0.000
          OF   1184.400     -2.900      0.000      9.495      0.000      0.000      0.000      0.000      0.009      0.000
          OF   1187.700     -2.880      0.000      9.497      0.000      0.000      0.000      0.000      0.002      0.000
          OF   1190.900     -2.890      0.000      9.499      0.000      0.000      0.000      0.000     -0.004      0.000
          OF   1194.200     -2.906      0.000      9.502      0.000      0.000      0.000      0.000     -0.004      0.000
          OF   1197.500     -2.915      0.000      9.503      0.000      0.000      0.000      0.000     -0.003      0.000
          OF   1200.800     -2.923      0.000      9.505      0.000      0.000      0.000      0.000     -0.002      0.000
          OF   1204.100     -2.931      0.000      9.507      0.000      0.000      0.000      0.000     -0.002      0.000
          OF   1207.300     -2.939      0.000      9.509      0.000      0.000      0.000      0.000     -0.002      0.000
          OF   1210.600     -2.947      0.000      9.511      0.000      0.000      0.000      0.000     -0.002      0.000
          OF   1213.900     -2.955      0.000      9.512      0.000      0.000      0.000      0.000     -0.002      0.000
          OF   1217.200     -2.964      0.000      9.514      0.000      0.000      0.000      0.000     -0.002      0.000
          OF   1220.500     -2.972      0.000      9.516      0.000      0.000      0.000      0.000     -0.002      0.000
          OF   1223.800     -2.980      0.000      9.517      0.000      0.000      0.000      0.000     -0.002      0.000
          OF   1227.000     -2.988      0.000      9.519      0.000      0.000      0.000      0.000     -0.002      0.000
          OF   1230.300     -2.996      0.000      9.520      0.000      0.000      0.000      0.000     -0.002      0.000
          OF   1233.600     -3.004      0.000      9.522      0.000      0.000      0.000      0.000     -0.002      0.000
          OF   1236.900     -3.012      0.000      9.523      0.000      0.000      0.000      0.000     -0.002      0.000
          OF   1240.200     -3.020      0.000      9.524      0.000      0.000      0.000      0.000     -0.002      0.000
          OF   1243.400     -3.028      0.000      9.525      0.000      0.000      0.000      0.000     -0.002      0.000
          OF   1246.700     -3.036      0.000      9.527      0.000      0.000      0.000      0.000     -0.002      0.000
          OF   1250.000     -3.044      0.000      9.528      0.000      0.000      0.000      0.000     -0.002      0.000
          OF   1253.300     -3.052      0.000      9.529      0.000      0.000      0.000      0.000     -0.002      0.000
          OF   1256.600     -3.060      0.000      9.530      0.000      0.000      0.000      0.000     -0.002      0.000
          OF   1259.800     -3.068      0.000      9.532      0.000      0.000      0.000      0.000     -0.002      0.000
          OF   1263.100     -3.076      0.000      9.533      0.000      0.000      0.000      0.000     -0.002      0.000
          OF   1266.400     -3.084      0.000      9.534      0.000      0.000      0.000      0.000     -0.002      0.000
          OF   1269.700     -3.092      0.000      9.535      0.000      0.000      0.000      0.000     -0.002      0.000
          OF   1273.000     -3.100      0.000      9.536      0.000      0.000      0.000      0.000     -0.002      0.000
          OF   1276.200     -3.108      0.000      9.537      0.000      0.000      0.000      0.000     -0.002      0.000
          OF   1279.500     -3.116      0.000      9.538      0.000      0.000      0.000      0.000     -0.002      0.000
          OF   1282.800     -3.124      0.000      9.539      0.000      0.000      0.000      0.000     -0.002      0.000
          OF   1286.100     -3.132      0.000      9.540      0.000      0.000      0.000      0.000     -0.002      0.000
          OF   1289.400     -3.137      0.000      9.541      0.000      0.000      0.000      0.000      0.004      0.000
          OF   1292.600     -3.109      0.000      9.541      0.000      0.000      0.000      0.000      0.009      0.000
          OF   1295.900     -3.079      0.000      9.542      0.000      0.000      0.000      0.000      0.009      0.000
          OF   1299.200     -3.050      0.000      9.542      0.000      0.000      0.000      0.000      0.009      0.000
          OF   1302.500     -3.020      0.000      9.543      0.000      0.000      0.000      0.000      0.009      0.000
          OF   1305.800     -2.990      0.000      9.543      0.000      0.000      0.000      0.000      0.009      0.000
          OF   1309.100     -2.961      0.000      9.544      0.000      0.000      0.000      0.000      0.009      0.000
          OF   1312.300     -2.931      0.000      9.545      0.000      0.000      0.000      0.000      0.009      0.000
          OF   1315.600     -2.901      0.000      9.546      0.000      0.000      0.000      0.000      0.009      0.000
          OF   1318.900     -2.872      0.000      9.546      0.000      0.000      0.000      0.000      0.009      0.000
          OF   1322.200     -2.842      0.000      9.547      0.000      0.000      0.000      0.000      0.009      0.000
          OF   1325.500     -2.812      0.000      9.547      0.000      0.000      0.000      0.000      0.009      0.000
          OF   1328.700     -2.783      0.000      9.548      0.000      0.000      0.000      0.000      0.011      0.000
          OF   1332.000     -2.743      0.000      9.549      0.000      0.000      0.000      0.000      0.013      0.000
          OF   1335.300     -2.697      0.000      9.549      0.000      0.000      0.000      0.000      0.014      0.000
          OF   1338.600     -2.651      0.000      9.550      0.000      0.000      0.000      0.000      0.014      0.000
          OF   1341.900     -2.604      0.000      9.550      0.000      0.000      0.000      0.000      0.014      0.000
          OF   1345.100     -2.558      0.000      9.551      0.000      0.000      0.000      0.000      0.014      0.000
          OF   1348.400     -2.512      0.000      9.552      0.000      0.000      0.000      0.000      0.014      0.000
          OF   1351.700     -2.466      0.000      9.552      0.000      0.000      0.000      0.000      0.014      0.000
          OF   1355.000     -2.420      0.000      9.553      0.000      0.000      0.000      0.000      0.014      0.000
          OF   1358.300     -2.373      0.000      9.554      0.000      0.000      0.000      0.000      0.014      0.000
          OF   1361.500     -2.327      0.000      9.554      0.000      0.000      0.000      0.000      0.014      0.000
          OF   1364.800     -2.281      0.000      9.555      0.000      0.000      0.000      0.000      0.014      0.000
          OF   1368.100     -2.235      0.000      9.555      0.000      0.000      0.000      0.000      0.014      0.000
          OF   1371.400     -2.188      0.000      9.556      0.000      0.000      0.000      0.000      0.014      0.000
          OF   1374.700     -2.142      0.000      9.557      0.000      0.000      0.000      0.000      0.014      0.000
          OF   1377.900     -2.096      0.000      9.558      0.000      0.000      0.000      0.000      0.014      0.000
          OF   1381.200     -2.050      0.000      9.558      0.000      0.000      0.000      0.000      0.014      0.000
          OF   1384.500     -2.004      0.000      9.559      0.000      0.000      0.000      0.000      0.014      0.000
          OF   1387.800     -1.957      0.000      9.560      0.000      0.000      0.000      0.000      0.014      0.000
          OF   1391.100     -1.911      0.000      9.561      0.000      0.000      0.000      0.000      0.014      0.000
          OF   1394.400     -1.864      0.000      9.561      0.000      0.000      0.000      0.000      0.015      0.000
          OF   1397.600     -1.813      0.000      9.562      0.000      0.000      0.000      0.000      0.016      0.000
          OF   1400.900     -1.762      0.000      9.563      0.000      0.000      0.000      0.000      0.015      0.000
          OF   1404.200     -1.711      0.000      9.564      0.000      0.000      0.000      0.000      0.015      0.000
          OF   1407.500     -1.660      0.000      9.565      0.000      0.000      0.000      0.000      0.015      0.000
          OF   1410.800     -1.609      0.000      9.565      0.000      0.000      0.000      0.000      0.016      0.000
          OF   1414.000     -1.558      0.000      9.566      0.000      0.000      0.000      0.000      0.016      0.000
          OF   1417.300     -1.507      0.000      9.567      0.000      0.000      0.000      0.000      0.015      0.000
          OF   1420.600     -1.456      0.000      9.568      0.000      0.000      0.000      0.000      0.018      0.000
          OF   1423.900     -1.387      0.000      9.569      0.000      0.000      0.000      0.000      0.021      0.000
          OF   1427.200     -1.315      0.000      9.570      0.000      0.000      0.000      0.000      0.022      0.000
          OF   1430.400     -1.244      0.000      9.571      0.000      0.000      0.000      0.000      0.022      0.000
          OF   1433.700     -1.173      0.000      9.571      0.000      0.000      0.000      0.000      0.022      0.000
          OF   1437.000     -1.101      0.000      9.572      0.000      0.000      0.000      0.000      0.022      0.000
          OF   1440.300     -1.030      0.000      9.573      0.000      0.000      0.000      0.000      0.022      0.000
          OF   1443.600     -0.959      0.000      9.574      0.000      0.000      0.000      0.000      0.022      0.000
          OF   1446.800     -0.887      0.000      9.575      0.000      0.000      0.000      0.000      0.022      0.000
          OF   1450.100     -0.816      0.000      9.576      0.000      0.000      0.000      0.000      0.022      0.000
          OF   1453.400     -0.745      0.000      9.577      0.000      0.000      0.000      0.000      0.022      0.000
          OF   1456.700     -0.674      0.000      9.579      0.000      0.000      0.000      0.000      0.022      0.000
          OF   1460.000     -0.602      0.000      9.580      0.000      0.000      0.000      0.000      0.022      0.000
          OF   1463.300     -0.531      0.000      9.581      0.000      0.000      0.000      0.000      0.022      0.000
          OF   1466.500     -0.460      0.000      9.582      0.000      0.000      0.000      0.000      0.022      0.000
          OF   1469.800     -0.388      0.000      9.584      0.000      0.000      0.000      0.000      0.022      0.000
          OF   1473.100     -0.317      0.000      9.585      0.000      0.000      0.000      0.000      0.022      0.000
          OF   1476.400     -0.246      0.000      9.586      0.000      0.000      0.000      0.000      0.022      0.000
          OF   1479.700     -0.174      0.000      9.588      0.000      0.000      0.000      0.000      0.022      0.000
          OF   1482.900     -0.103      0.000      9.589      0.000      0.000      0.000      0.000      0.022      0.000
          OF   1486.200     -0.032      0.000      9.591      0.000      0.000      0.000      0.000     -0.007      0.000
          OF   1489.500     -0.152      0.000      9.594      0.000      0.000      0.000      0.000     -0.025      0.000
          OF   1492.800     -0.198      0.000      9.597      0.000      0.000      0.000      0.000      0.018      0.000
          OF   1496.100     -0.034      0.000      9.597      0.000      0.000      0.000      0.000      0.051      0.000
          IF   1499.300      0.131      0.000      9.597      0.000      0.000      0.000      0.000      0.037      0.000
          IF   1502.600      0.205      0.000      9.599      0.000      0.000      0.000      0.000      0.019      0.000
          IF   1505.900      0.255      0.000      9.601      0.000      0.000      0.000      0.000      0.018      0.000
          IF   1509.200      0.324      0.000      9.602      0.000      0.000      0.000      0.000      0.032      0.000
          IF   1512.500      0.464      0.000      9.603      0.000      0.000      0.000      0.000      0.043      0.000
          IF   1515.700      0.604      0.000      9.604      0.000      0.000      0.000      0.000      0.044      0.000
          IF   1519.000      0.750      0.000      9.605      0.000      0.000      0.000      0.000      0.049      0.000
          IF   1522.300      0.925      0.000      9.606      0.000      0.000      0.000      0.000      0.053      0.000
          IF   1525.600      1.100      0.000      9.607      0.000      0.000      0.000      0.000      0.040      0.000
          IF   1528.900      1.187      0.000      9.609      0.000      0.000      0.000      0.000      0.022      0.000
          IF   1532.100      1.241      0.000      9.612      0.000      0.000      0.000      0.000      0.021      0.000
          IF   1535.400      1.324      0.000      9.615      0.000      0.000      0.000      0.000      0.028      0.000
          IF   1538.700      1.429      0.000      9.617      0.000      0.000      0.000      0.000      0.037      0.000
          IF   1542.000      1.566      0.000      9.619      0.000      0.000      0.000      0.000      0.036      0.000
          IF   1545.300      1.667      0.000      9.622      0.000      0.000      0.000      0.000      0.028      0.000
          IF   1548.600      1.748      0.000      9.625      0.000      0.000      0.000      0.000      0.021      0.000
          IF   1551.800      1.802      0.000      9.628      0.000      0.000      0.000      0.000      0.024      0.000
          IF   1555.100      1.902      0.000      9.631      0.000      0.000      0.000      0.000      0.044      0.000
          IF   1558.400      2.094      0.000      9.632      0.000      0.000      0.000      0.000      0.058      0.000
          IF   1561.700      2.285      0.000      9.635      0.000      0.000      0.000      0.000      0.049      0.000
          IF   1565.000      2.414      0.000      9.638      0.000      0.000      0.000      0.000      0.033      0.000
          IF   1568.200      2.500      0.000      9.642      0.000      0.000      0.000      0.000      0.030      0.000
          IF   1571.500      2.609      0.000      9.646      0.000      0.000      0.000      0.000      0.041      0.000
          IF   1574.800      2.771      0.000      9.649      0.000      0.000      0.000      0.000      0.049      0.000
          IF   1578.100      2.932      0.000      9.652      0.000      0.000      0.000      0.000      0.048      0.000
          IF   1581.400      3.088      0.000      9.656      0.000      0.000      0.000      0.000      0.048      0.000
          IF   1584.600      3.244      0.000      9.660      0.000      0.000      0.000      0.000      0.047      0.000
          IF   1587.900      3.397      0.000      9.665      0.000      0.000      0.000      0.000      0.044      0.000
          IF   1591.200      3.536      0.000      9.670      0.000      0.000      0.000      0.000      0.042      0.000
          IF   1594.500      3.674      0.000      9.675      0.000      0.000      0.000      0.000      0.043      0.000
          IF   1597.800      3.823      0.000      9.681      0.000      0.000      0.000      0.000      0.046      0.000
          IF   1601.000      3.973      0.000      9.687      0.000      0.000      0.000      0.000      0.054      0.000
          IF   1604.300      4.174      0.000      9.692      0.000      0.000      0.000      0.000      0.061      0.000
          IF   1607.600      4.374      0.000      9.698      0.000      0.000      0.000      0.000      0.045      0.000
          IF   1610.900      4.468      0.000      9.707      0.000      0.000      0.000      0.000      0.022      0.000
          IF   1614.200      4.522      0.000      9.716      0.000      0.000      0.000      0.000      0.022      0.000
          IF   1617.500      4.614      0.000      9.725      0.000      0.000      0.000      0.000      0.029      0.000
          IF   1620.700      4.710      0.000      9.732      0.000      0.000      0.000      0.000      0.030      0.000
          IF   1624.000      4.808      0.000      9.740      0.000      0.000      0.000      0.000      0.025      0.000
          IF   1627.300      4.875      0.000      9.748      0.000      0.000      0.000      0.000      0.020      0.000
          IF   1630.600      4.937      0.000      9.756      0.000      0.000      0.000      0.000      0.025      0.000
          IF   1633.900      5.041      0.000      9.762      0.000      0.000      0.000      0.000      0.035      0.000
          IF   1637.100      5.162      0.000      9.769      0.000      0.000      0.000      0.000      0.035      0.000
          IF   1640.400      5.266      0.000      9.776      0.000      0.000      0.000      0.000      0.025      0.000
          IF   1643.700      5.325      0.000      9.783      0.000      0.000      0.000      0.000      0.039      0.000
          IF   1647.000      5.525      0.000      9.788      0.000      0.000      0.000      0.000      0.075      0.000
          IF   1650.300      5.818      0.000      9.792      0.000      0.000      0.000      0.000      0.064      0.000
          IF   1653.500      5.940      0.000      9.802      0.000      0.000      0.000      0.000      0.035      0.000
          IF   1656.800      6.047      0.000      9.812      0.000      0.000      0.000      0.000      0.042      0.000
          IF   1660.100      6.219      0.000      9.821      0.000      0.000      0.000      0.000      0.065      0.000
          IF   1663.400      6.479      0.000      9.829      0.000      0.000      0.000      0.000      0.087      0.000
          IF   1666.700      6.792      0.000      9.838      0.000      0.000      0.000      0.000      0.096      0.000
          IF   1669.900      7.105      0.000      9.851      0.000      0.000      0.000      0.000      0.112      0.000
          IF   1673.200      7.520      0.000      9.867      0.000      0.000      0.000      0.000      0.153      0.000
          IF   1676.500      8.113      0.000      9.922      0.000      0.000      0.000      0.000      0.137      0.000
          IF   1679.800      8.425      0.000      9.986      0.000      0.000      0.000      0.000      0.064      0.000
          IF   1683.100      8.532      0.000     10.052      0.000      0.000      0.000      0.000      0.035      0.000
          IF   1686.300      8.651      0.000     10.091      0.000      0.000      0.000      0.000      0.054      0.000
          IF   1689.600      8.884      0.000     10.116      0.000      0.000      0.000      0.000      0.053      0.000
          IF   1697.000      9.219      0.000     10.116      0.000      0.000      0.000      0.000      0.047      0.000
          IF   1701.000      9.416      0.000     10.116      0.000      0.000      0.000      0.000      0.067      0.000
          IF   1710.400     10.116      0.000     10.116      0.000      0.000      0.000      0.000      0.075      0.000
          AS   1975.800      9.803      0.000      9.803      0.000      0.000      0.000      0.000     -0.025      0.000
          IF   1982.000      9.646      0.000      9.803      0.000      0.000      0.000      0.000     -0.013      0.000
          IF   1992.500      9.580      0.000      9.803      0.000      0.000      0.000      0.000     -0.009      0.000
          IF   1997.000      9.514      0.000      9.803      0.000      0.000      0.000      0.000     -0.033      0.000
          IF   2003.500      9.219      0.000      9.803      0.000      0.000      0.000      0.000     -0.033      0.000
          IF   2022.000      8.694      0.000      9.803      0.000      0.000      0.000      0.000     -0.013      0.000
          IF   2029.000      8.891      0.000      9.803      0.000      0.000      0.000      0.000      0.004      0.000
          IF   2038.500      8.760      0.000      9.803      0.000      0.000      0.000      0.000      0.014      0.000
          IF   2048.000      9.153      0.000      9.803      0.000      0.000      0.000      0.000      0.036      0.000
          IF   2057.000      9.416      0.000      9.803      0.000      0.000      0.000      0.000      0.032      0.000
          IF   2068.300      9.803      0.000      9.803      0.000      0.000      0.000      0.000      0.034      0.000
          AS   2244.200      9.391      0.000      9.391      0.000      0.000      0.000      0.000     -0.150      0.000
          IF   2249.500      8.596      0.000      9.391      0.000      0.000      0.000      0.000     -0.075      0.000
          IF   2264.500      7.874      0.000      9.391      0.000      0.000      0.000      0.000     -0.042      0.000
          IF   2269.000      7.776      0.000      9.391      0.000      0.000      0.000      0.000     -0.021      0.000
          IF   2283.000      7.480      0.000      9.392      0.000      0.000      0.000      0.000     -0.018      0.000
          IF   2289.500      7.415      0.000      9.392      0.000      0.000      0.000      0.000     -0.084      0.000
          IF   2300.500      6.004      0.000      9.393      0.000      0.000      0.000      0.000     -0.032      0.000
          IF   2319.000      6.463      0.000      9.395      0.000      0.000      0.000      0.000      0.013      0.000
          IF   2329.000      6.365      0.000      9.396      0.000      0.000      0.000      0.000      0.004      0.000
          IF   2348.000      6.595      0.000      9.397      0.000      0.000      0.000      0.000      0.006      0.000
          IF   2357.000      6.529      0.000      9.398      0.000      0.000      0.000      0.000     -0.005      0.000
          IF   2372.000      6.463      0.000      9.399      0.000      0.000      0.000      0.000     -0.013      0.000
          IF   2379.000      6.234      0.000      9.399      0.000      0.000      0.000      0.000     -0.002      0.000
          IF   2391.500      6.430      0.000      9.399      0.000      0.000      0.000      0.000      0.017      0.000
          IF   2396.000      6.529      0.000      9.399      0.000      0.000      0.000      0.000     -0.021      0.000
          IF   2409.000      6.070      0.000      9.399      0.000      0.000      0.000      0.000     -0.032      0.000
          IF   2417.500      5.840      0.000      9.399      0.000      0.000      0.000      0.000     -0.029      0.000
          IF   2427.000      5.545      0.000      9.399      0.000      0.000      0.000      0.000      0.001      0.000
          IF   2449.000      5.873      0.000      9.400      0.000      0.000      0.000      0.000      0.008      0.000
          IF   2456.000      5.774      0.000      9.400      0.000      0.000      0.000      0.000      0.000      0.000
          IF   2471.000      5.873      0.000      9.400      0.000      0.000      0.000      0.000      0.006      0.000
          IF   2483.000      5.938      0.000      9.401      0.000      0.000      0.000      0.000     -0.004      0.000
          IF   2493.000      5.774      0.000      9.401      0.000      0.000      0.000      0.000     -0.003      0.000
          IF   2518.500      5.840      0.000      9.401      0.000      0.000      0.000      0.000      0.004      0.000
          IF   2529.500      5.938      0.000      9.401      0.000      0.000      0.000      0.000      0.016      0.000
          IF   2546.500      6.299      0.000      9.402      0.000      0.000      0.000      0.000      0.004      0.000
          IF   2578.000      6.135      0.000      9.402      0.000      0.000      0.000      0.000     -0.012      0.000
          IF   2585.500      5.840      0.000      9.402      0.000      0.000      0.000      0.000     -0.005      0.000
          IF   2605.000      6.004      0.000      9.403      0.000      0.000      0.000      0.000      0.004      0.000
          IF   2609.500      5.938      0.000      9.403      0.000      0.000      0.000      0.000      0.000      0.000
          IF   2622.500      6.004      0.000      9.403      0.000      0.000      0.000      0.000     -0.003      0.000
          IF   2641.000      5.840      0.000      9.403      0.000      0.000      0.000      0.000     -0.009      0.000
          IF   2655.000      5.709      0.000      9.404      0.000      0.000      0.000      0.000     -0.002      0.000
          IF   2667.500      5.774      0.000      9.404      0.000      0.000      0.000      0.000     -0.003      0.000
          IF   2679.500      5.643      0.000      9.404      0.000      0.000      0.000      0.000     -0.003      0.000
          IF   2692.000      5.709      0.000      9.405      0.000      0.000      0.000      0.000      0.002      0.000
          IF   2724.500      5.709      0.000      9.405      0.000      0.000      0.000      0.000     -0.002      0.000
          IF   2734.000      5.643      0.000      9.405      0.000      0.000      0.000      0.000     -0.003      0.000
          IF   2749.000      5.643      0.000      9.406      0.000      0.000      0.000      0.000     -0.004      0.000
          IF   2756.000      5.545      0.000      9.406      0.000      0.000      0.000      0.000     -0.012      0.000
          IF   2774.000      5.348      0.000      9.407      0.000      0.000      0.000      0.000     -0.003      0.000
          IF   2780.500      5.479      0.000      9.407      0.000      0.000      0.000      0.000      0.003      0.000
          IF   2798.500      5.413      0.000      9.407      0.000      0.000      0.000      0.000     -0.002      0.000
          IF   2817.500      5.413      0.000      9.408      0.000      0.000      0.000      0.000      0.000      0.000
          IF   2834.500      5.413      0.000      9.408      0.000      0.000      0.000      0.000     -0.007      0.000
          IF   2841.000      5.249      0.000      9.408      0.000      0.000      0.000      0.000     -0.010      0.000
          IF   2863.500      5.118      0.000      9.408      0.000      0.000      0.000      0.000     -0.002      0.000
          IF   2869.500      5.184      0.000      9.408      0.000      0.000      0.000      0.000     -0.028      0.000
          IF   2890.500      4.364      0.000      9.409      0.000      0.000      0.000      0.000     -0.025      0.000
          IF   2905.000      4.298      0.000      9.409      0.000      0.000      0.000      0.000      0.005      0.000
          IF   2963.500      4.724      0.000      9.410      0.000      0.000      0.000      0.000      0.009      0.000
          IF   2974.000      4.889      0.000      9.410      0.000      0.000      0.000      0.000      0.003      0.000
          IF   2985.500      4.790      0.000      9.410      0.000      0.000      0.000      0.000     -0.003      0.000
          IF   3004.000      4.790      0.000      9.411      0.000      0.000      0.000      0.000      0.001      0.000
          IF   3013.000      4.823      0.000      9.411      0.000      0.000      0.000      0.000     -0.065      0.000
          OF   3107.500     -1.936      0.000      9.412      0.000      0.000      0.000      0.000     -0.068      0.000
          OF   3110.500     -1.804      0.000      9.412      0.000      0.000      0.000      0.000     -0.060      0.000
          OF   3182.000     -6.415      0.000      9.413      0.000      0.000      0.000      0.000     -0.064      0.000
          OF   3183.000     -6.415      0.000      9.413      0.000      0.000      0.000      0.000      0.000      0.000
          OF   3206.000     -6.413      0.000      9.413      0.000      0.000      0.000      0.000      0.000      0.000
          OF   3207.000     -6.412      0.000      9.413      0.000      0.000      0.000      0.000      0.000      0.000
          OF   3230.000     -6.410      0.000      9.413      0.000      0.000      0.000      0.000      0.000      0.000
          OF   3231.000     -6.410      0.000      9.413      0.000      0.000      0.000      0.000      0.000      0.000
          OF   3254.000     -6.408      0.000      9.413      0.000      0.000      0.000      0.000      0.000      0.000
          OF   3255.000     -6.408      0.000      9.413      0.000      0.000      0.000      0.000      0.008      0.000
          OF   3292.000     -6.114      0.000      9.413      0.000      0.000      0.000      0.000      0.008      0.000
          OF   3293.000     -6.103      0.000      9.413      0.000      0.000      0.000      0.000      0.011      0.000
          OF   3316.000     -5.846      0.000      9.413      0.000      0.000      0.000      0.000      0.011      0.000
          OF   3317.000     -5.835      0.000      9.413      0.000      0.000      0.000      0.000      0.013      0.000
          OF   3340.000     -5.535      0.000      9.413      0.000      0.000      0.000      0.000      0.014      0.000
          OF   3341.000     -5.511      0.000      9.413      0.000      0.000      0.000      0.000      0.024      0.000
          OF   3364.000     -4.952      0.000      9.414      0.000      0.000      0.000      0.000      0.024      0.000
          OF   3365.000     -4.927      0.000      9.414      0.000      0.000      0.000      0.000      0.004      0.000
          OF   3415.000     -4.727      0.000      9.414      0.000      0.000      0.000      0.000      0.036      0.000
          IF   3638.500      4.954      0.000      9.417      0.000      0.000      0.000      0.000     -0.003      0.000
          OF   3865.000     -6.032      0.000      9.422      0.000      0.000      0.000      0.000     -0.046      0.000
          OF   3884.000     -6.228      0.000      9.422      0.000      0.000      0.000      0.000     -0.010      0.000
          OF   3885.000     -6.228      0.000      9.422      0.000      0.000      0.000      0.000      0.000      0.000
          OF   3908.000     -6.228      0.000      9.422      0.000      0.000      0.000      0.000      0.000      0.000
          OF   3909.000     -6.228      0.000      9.422      0.000      0.000      0.000      0.000      0.000      0.000
          OF   3932.000     -6.227      0.000      9.422      0.000      0.000      0.000      0.000      0.000      0.000
          OF   3933.000     -6.227      0.000      9.422      0.000      0.000      0.000      0.000      0.019      0.000
          OF   3956.000     -5.783      0.000      9.422      0.000      0.000      0.000      0.000      0.021      0.000
          OF   3957.000     -5.723      0.000      9.422      0.000      0.000      0.000      0.000      0.061      0.000
          OF   3980.000     -4.329      0.000      9.423      0.000      0.000      0.000      0.000      0.061      0.000
          OF   3981.000     -4.268      0.000      9.423      0.000      0.000      0.000      0.000      0.060      0.000
          OF   4043.000     -0.527      0.000      9.423      0.000      0.000      0.000      0.000      0.060      0.000
          OF   4044.000     -0.519      0.000      9.423      0.000      0.000      0.000      0.000     -0.005      0.000
          OF   4204.000     -1.395      0.000      9.426      0.000      0.000      0.000      0.000     -0.005      0.000
          OF   4205.000     -1.405      0.000      9.426      0.000      0.000      0.000      0.000     -0.003      0.000
          OF   4350.000     -1.788      0.000      9.427      0.000      0.000      0.000      0.000     -0.003      0.000
          OF   4352.000     -1.784      0.000      9.427      0.000      0.000      0.000      0.000      0.062      0.000
          IF   4448.000      4.331      0.000      9.428      0.000      0.000      0.000      0.000      0.049      0.000
          IF   4471.000      4.101      0.000      9.428      0.000      0.000      0.000      0.000      0.002      0.000
          IF   4477.500      4.396      0.000      9.428      0.000      0.000      0.000      0.000      0.007      0.000
          IF   4558.500      4.757      0.000      9.429      0.000      0.000      0.000      0.000      0.004      0.000
          IF   4586.000      4.856      0.000      9.429      0.000      0.000      0.000      0.000      0.002      0.000
          IF   4596.000      4.823      0.000      9.429      0.000      0.000      0.000      0.000      0.003      0.000
          IF   4611.000      4.921      0.000      9.429      0.000      0.000      0.000      0.000      0.005      0.000
          IF   4632.000      4.987      0.000      9.429      0.000      0.000      0.000      0.000      0.002      0.000
          IF   4651.000      4.987      0.000      9.429      0.000      0.000      0.000      0.000      0.002      0.000
          IF   4663.500      5.052      0.000      9.429      0.000      0.000      0.000      0.000      0.006      0.000
          IF   4676.500      5.151      0.000      9.430      0.000      0.000      0.000      0.000      0.002      0.000
          IF   4685.500      5.085      0.000      9.431      0.000      0.000      0.000      0.000     -0.026      0.000
          IF   4711.000      4.265      0.000      9.432      0.000      0.000      0.000      0.000     -0.030      0.000
          IF   4723.500      3.937      0.000      9.433      0.000      0.000      0.000      0.000     -0.011      0.000
          IF   4745.500      3.871      0.000      9.435      0.000      0.000      0.000      0.000      0.017      0.000
          IF   4754.000      4.462      0.000      9.435      0.000      0.000      0.000      0.000      0.038      0.000
          IF   4777.000      5.052      0.000      9.436      0.000      0.000      0.000      0.000      0.014      0.000
          IF   4797.000      5.052      0.000      9.437      0.000      0.000      0.000      0.000      0.006      0.000
          IF   4805.500      5.216      0.000      9.437      0.000      0.000      0.000      0.000     -0.041      0.000
          IF   4836.500      3.445      0.000      9.438      0.000      0.000      0.000      0.000     -0.066      0.000
          IF   4843.000      2.756      0.000      9.438      0.000      0.000      0.000      0.000      0.006      0.000
          IF   5038.000      4.692      0.000      9.440      0.000      0.000      0.000      0.000      0.010      0.000
          IF   5047.500      4.856      0.000      9.440      0.000      0.000      0.000      0.000      0.000      0.000
          IF   5067.500      4.692      0.000      9.440      0.000      0.000      0.000      0.000     -0.003      0.000
          IF   5079.500      4.757      0.000      9.440      0.000      0.000      0.000      0.000      0.006      0.000
          IF   5094.000      4.856      0.000      9.441      0.000      0.000      0.000      0.000      0.003      0.000
          IF   5102.000      4.823      0.000      9.441      0.000      0.000      0.000      0.000      0.000      0.000
          IF   5134.500      4.856      0.000      9.441      0.000      0.000      0.000      0.000     -0.003      0.000
          IF   5142.000      4.692      0.000      9.441      0.000      0.000      0.000      0.000      0.000      0.000
          IF   5159.500      4.856      0.000      9.441      0.000      0.000      0.000      0.000      0.003      0.000
          IF   5167.000      4.757      0.000      9.441      0.000      0.000      0.000      0.000      0.002      0.000
          IF   5188.500      4.921      0.000      9.441      0.000      0.000      0.000      0.000      0.003      0.000
          IF   5199.500      4.856      0.000      9.442      0.000      0.000      0.000      0.000      0.002      0.000
          IF   5216.500      4.987      0.000      9.442      0.000      0.000      0.000      0.000     -0.004      0.000
          IF   5224.500      4.757      0.000      9.443      0.000      0.000      0.000      0.000     -0.008      0.000
          IF   5254.000      4.692      0.000      9.444      0.000      0.000      0.000      0.000      0.000      0.000
          IF   5263.500      4.757      0.000      9.444      0.000      0.000      0.000      0.000     -0.005      0.000
          IF   5284.500      4.528      0.000      9.445      0.000      0.000      0.000      0.000     -0.002      0.000
          IF   5298.000      4.692      0.000      9.445      0.000      0.000      0.000      0.000     -0.005      0.000
          IF   5321.500      4.331      0.000      9.445      0.000      0.000      0.000      0.000     -0.002      0.000
          IF   5326.500      4.626      0.000      9.445      0.000      0.000      0.000      0.000     -0.077      0.000
          OF   5387.000     -0.722      0.000      9.448      0.000      0.000      0.000      0.000     -0.080      0.000
          OF   5394.500     -0.787      0.000      9.448      0.000      0.000      0.000      0.000     -0.005      0.000
          OF   5503.000     -1.309      0.000      9.449      0.000      0.000      0.000      0.000     -0.005      0.000
[...]

                                            1676.50          10.91

                                                                          A19  EL=11      95

                                            1679.80          10.84

                                                                          A19  EL=11      95

                                            1683.10          10.88

                                                                          A19  EL=11      95

                                            1686.30          10.88

                                                                          A19  EL=11      95

                                            1689.60          10.79

                                                                          A19  EL=11      95

                                            1700.92          10.50

                                                                          A19  EL=10      95

                                            1710.40          10.12


                                            1975.80           9.80

                                                                          A19  EL=10      95

                                            2068.30           9.81


                                            2244.20           9.39

                                                                          A19  EL= 9      95

                                            2269.00           9.48

                                                                          A19  EL= 9      95

                                            2279.27           9.50

                                                                          A19  EL=10      95

                                            2283.00           9.51

                                                                          A19  EL=10      95

                                            2289.50           9.52

                                                                          A19  EL=10      95

                                            2300.50           9.54

                                                                          A19  EL=10      95

                                            2319.00           9.57

                                                                          A19  EL=10      95

                                            2329.00           9.59

                                                                          A19  EL=10      95

                                            2348.00           9.62

                                                                          A19  EL=10      95

                                            2357.00           9.63

                                                                          A19  EL=10      95

                                            2372.00           9.65

                                                                          A19  EL=10      95

                                            2427.00           9.72

                                                                          A19  EL=10      95

                                            2449.00           9.75

                                                                          A19  EL=10      95

                                            2471.00           9.77

                                                                          A19  EL=10      95

                                            2483.00           9.79

                                                                          A19  EL=10      95

                                            2529.50           9.84

                                                                          A19  EL=10      95

                                            2546.50           9.85

                                                                          A19  EL=10      95

                                            2585.50           9.89

                                                                          A19  EL=10      95

                                            2605.00           9.91

                                                                          A19  EL=10      95

                                            2641.00           9.94

                                                                          A19  EL=10      95

                                            2655.00           9.96

                                                                          A19  EL=10      95

                                            2679.50           9.98

                                                                          A19  EL=10      95

                                            2692.00           9.99

                                                                          A19  EL=10      95

                                            2734.00          10.03

                                                                          A19  EL=10      95

                                            2749.00          10.04

                                                                          A19  EL=10      95

                                            2756.00          10.05

                                                                          A19  EL=10      95

                                            2774.00          10.06

                                                                          A19  EL=10      95

                                            2798.50          10.08

                                                                          A19  EL=10      95

                                            2817.50          10.10

                                                                          A19  EL=10      95

                                            2869.50          10.14

                                                                          A19  EL=10      95

                                            2890.50          10.16

                                                                          A19  EL=10      95

                                            2905.00          10.17

                                                                          A19  EL=10      95

                                            2963.50          10.21

                                                                          A19  EL=10      95

                                            2985.50          10.23

                                                                          A19  EL=10      95

                                            3004.00          10.24

                                                                          A19  EL=10      95

                                            3013.00          10.25

                                                                          A19  EL=10      95

                                            3107.50          10.32

                                                                          A19  EL=10      95

                                            3110.50          10.32

                                                                          A19  EL=10      95

                                            3182.00          10.37

                                                                          A19  EL=10      95

                                            3341.00          10.48

                                                                          A19  EL=10      95

                                            3364.00           0.00

                                                                          A19  EL=10      95

                                            3372.52           0.00

                                                                          A19  EL=11      95

                                            3415.00           0.00

                                                                          A19  EL=11      95

                                            3638.50           0.00

                                                                          A19  EL=11      95

                                            3865.00           0.00

                                                                          A19  EL=11      95

                                            3957.00           0.00

                                                                          A19  EL=11      95

                                            3980.00           0.00

                                                                          A19  EL=11      95

                                            4044.00           0.00

                                                                          A19  EL=11      95

                                            4204.00           0.00

                                                                          A19  EL=11      95

                                            4205.00           0.00

                                                                          A19  EL=11      95

                                            4350.00           0.00

                                                                          A19  EL=11      95

                                            4352.00           0.00

                                                                          A19  EL=11      95

                                            4448.00           0.00

                                                                          A19  EL=11      95

                                            4477.50           0.00

                                                                          A19  EL=11      95

                                            4558.50           0.00

                                                                          A19  EL=11      95

                                            4663.50           0.00

                                                                          A19  EL=11      95

                                            4676.50           0.00

                                                                          A19  EL=11      95

                                            4685.50           0.00

                                                                          A19  EL=11      95

                                            4711.00           0.00

                                                                          A19  EL=11      95

                                            4723.50           0.00

                                                                          A19  EL=11      95

                                            4745.50           0.00

                                                                          A19  EL=11      95

                                            4754.00           0.00

                                                                          A19  EL=11      95

                                            4777.00           0.00

                                                                          A19  EL=11      95

                                            4797.00           0.00

                                                                          A19  EL=11      95

                                            4805.50           0.00

                                                                          A19  EL=11      95

                                            4836.50           0.00

                                                                          A19  EL=11      95

                                            4843.00           0.00

                                                                          A19  EL=11      95

                                            5038.00           0.00

                                                                          A19  EL=11      95

                                            5079.50           0.00

                                                                          A19  EL=11      95

                                            5094.00           0.00

                                                                          A19  EL=11      95

                                            5188.50           0.00

                                                                          A19  EL=11      95

                                            5199.50           0.00

                                                                          A19  EL=11      95

                                            5216.50           0.00

                                                                          A19  EL=11      95

                                            5224.50           0.00

                                                                          A19  EL=11      95

                                            5254.00           0.00

                                                                          A19  EL=11      95

                                            5263.50           0.00

                                                                          A19  EL=11      95

                                            5284.50           0.00

                                                                          A19  EL=11      95

                                            5326.50           0.00

                                                                          A19  EL=11      95

                                            5387.00           0.00

                                                                          A19  EL=11      95

                                            5394.50           0.00

                                                                          A19  EL=11      95

                                            5503.00           0.00

                                                                          A19  EL=11      95

                                            5504.00           0.00

                                                                          A19  EL=11      95

                                            5636.00           0.00

                                                                          A19  EL=11      95

                                            5709.00           0.00

                                                                          A19  EL=11      95

                                            5777.00           0.00

                                                                          A19  EL=11      95

                                            5793.50           0.00

                                                                          A19  EL=11      95

                                            5824.00           0.00

                                                                          A19  EL=11      95

                                            5834.50           0.00

                                                                          A19  EL=11      95

                                            5846.00           0.00

                                                                          A19  EL=11      95

                                            5859.50           0.00

                                                                          A19  EL=11      95

                                            5873.50           0.00

                                                                          A19  EL=11      95

                                            5882.00           0.00

                                                                          A19  EL=11      95

                                            5893.50           0.00

                                                                          A19  EL=11      95

                                            6169.00           0.00

                                                                          A19  EL=11      95

                                            6272.00           0.00

                                                                          A19  EL=11      95

                                            6310.00           0.00

                                                                          A19  EL=11      95

                                            6320.50           0.00

                                                                          A19  EL=11      95

                                            6347.50           0.00

                                                                          A19  EL=11      95

                                            6357.00           0.00

                                                                          A19  EL=11      95

                                            6370.00           0.00

                                                                          A19  EL=11      95

                                            6383.50           0.00

                                                                          A19  EL=11      95

                                            6400.50           0.00

                                                                          A19  EL=11      95

                                            6413.50           0.00

                                                                          A19  EL=11      95

                                            6420.50           0.00

                                                                          A19  EL=11      95

                                            6433.00           0.00

                                                                          A19  EL=11      95

                                            6438.74           0.00

                                                                          A19  EL=10      95

                                            6456.50           0.00

                                                                          A19  EL=10      95

                                            6462.00           0.00

                                                                          A19  EL=10      95

                                            6491.90           0.00


                                            6495.10           0.00

                                                                          A19  EL=10      95

                                            6520.50           0.00


                                            6524.20           0.00

                                                                          A19  EL=10      95

                                            6549.60           0.00


                                            6579.80           0.00

                                                                          A19  EL=10      95

                                            6594.00           0.00


                                            6596.20           0.00

                                                                          A19  EL=10      95

                                            6648.40           0.00



                                                  ZONE TERMINATED AT END OF TRANSECT



                                                  PART 7   POSTSCRIPT NOTES


PS START(374337.6187,4797259.1783)
PS END(372835.9412,4798774.2007)
