 WAVE HEIGHT COMPUTATIONS FOR FLOOD INSURANCE STUDIES (WHAFIS VERSION 4.0G, 08_2007)
 Executed on: Thu Mar  5 16:11:16 2020
 Input file:  C:\FEMA-TransectAnalysis\LOMR-TransectAnalysis-Wells\3_whafis\whafis4\YK-76.dat                                                 
 Output file: C:\FEMA-TransectAnalysis\LOMR-TransectAnalysis-Wells\3_whafis\whafis4\YK-76.out                                                 



                                                              header                                                                
                                                     THIS IS A 100-YEAR CASE


                                       THE FOLLOWING NON-DEFAULT WIND SPEEDS ARE BEING USED
                                            WINDIF  56.14  WINDOF  56.14  WINDVH  60.00

                                                             PART1 INPUT

          IE      0.000    -22.504      1.000      1.000      8.891     29.777     14.030     56.140      0.023      0.000
          OF      3.300    -22.429      0.000      8.894      0.000      0.000      0.000      0.000      0.023      0.000
          OF      6.600    -22.355      0.000      8.896      0.000      0.000      0.000      0.000      0.023      0.000
          OF      9.800    -22.280      0.000      8.899      0.000      0.000      0.000      0.000      0.023      0.000
          OF     13.100    -22.206      0.000      8.902      0.000      0.000      0.000      0.000      0.023      0.000
          OF     16.400    -22.131      0.000      8.905      0.000      0.000      0.000      0.000      0.023      0.000
          OF     19.700    -22.056      0.000      8.908      0.000      0.000      0.000      0.000      0.023      0.000
          OF     23.000    -21.982      0.000      8.911      0.000      0.000      0.000      0.000      0.023      0.000
          OF     26.200    -21.907      0.000      8.915      0.000      0.000      0.000      0.000      0.023      0.000
          OF     29.500    -21.833      0.000      8.918      0.000      0.000      0.000      0.000      0.023      0.000
          OF     32.800    -21.758      0.000      8.921      0.000      0.000      0.000      0.000      0.023      0.000
          OF     36.100    -21.683      0.000      8.925      0.000      0.000      0.000      0.000      0.023      0.000
          OF     39.400    -21.609      0.000      8.929      0.000      0.000      0.000      0.000      0.023      0.000
          OF     42.700    -21.534      0.000      8.932      0.000      0.000      0.000      0.000      0.023      0.000
          OF     45.900    -21.460      0.000      8.936      0.000      0.000      0.000      0.000      0.019      0.000
          OF     49.200    -21.414      0.000      8.940      0.000      0.000      0.000      0.000      0.006      0.000
          OF     52.500    -21.422      0.000      8.944      0.000      0.000      0.000      0.000     -0.002      0.000
          OF     55.800    -21.430      0.000      8.949      0.000      0.000      0.000      0.000     -0.003      0.000
          OF     59.100    -21.439      0.000      8.953      0.000      0.000      0.000      0.000     -0.003      0.000
          OF     62.300    -21.447      0.000      8.958      0.000      0.000      0.000      0.000     -0.002      0.000
          OF     65.600    -21.454      0.000      8.962      0.000      0.000      0.000      0.000      0.004      0.000
          OF     68.900    -21.422      0.000      8.966      0.000      0.000      0.000      0.000      0.010      0.000
          OF     72.200    -21.385      0.000      8.969      0.000      0.000      0.000      0.000      0.011      0.000
          OF     75.500    -21.348      0.000      8.973      0.000      0.000      0.000      0.000      0.011      0.000
          OF     78.700    -21.311      0.000      8.977      0.000      0.000      0.000      0.000      0.011      0.000
          OF     82.000    -21.274      0.000      8.980      0.000      0.000      0.000      0.000      0.011      0.000
          OF     85.300    -21.237      0.000      8.984      0.000      0.000      0.000      0.000      0.011      0.000
          OF     88.600    -21.200      0.000      8.988      0.000      0.000      0.000      0.000      0.011      0.000
          OF     91.900    -21.163      0.000      8.991      0.000      0.000      0.000      0.000      0.011      0.000
          OF     95.100    -21.126      0.000      8.995      0.000      0.000      0.000      0.000      0.011      0.000
          OF     98.400    -21.089      0.000      8.999      0.000      0.000      0.000      0.000      0.011      0.000
          OF    101.700    -21.052      0.000      9.002      0.000      0.000      0.000      0.000      0.011      0.000
          OF    105.000    -21.015      0.000      9.006      0.000      0.000      0.000      0.000      0.011      0.000
          OF    108.300    -20.978      0.000      9.009      0.000      0.000      0.000      0.000      0.011      0.000
          OF    111.500    -20.941      0.000      9.013      0.000      0.000      0.000      0.000      0.011      0.000
          OF    114.800    -20.904      0.000      9.016      0.000      0.000      0.000      0.000      0.011      0.000
          OF    118.100    -20.867      0.000      9.020      0.000      0.000      0.000      0.000      0.011      0.000
          OF    121.400    -20.830      0.000      9.023      0.000      0.000      0.000      0.000      0.011      0.000
          OF    124.700    -20.793      0.000      9.027      0.000      0.000      0.000      0.000      0.011      0.000
          OF    128.000    -20.756      0.000      9.030      0.000      0.000      0.000      0.000      0.011      0.000
          OF    131.200    -20.719      0.000      9.034      0.000      0.000      0.000      0.000      0.011      0.000
          OF    134.500    -20.682      0.000      9.037      0.000      0.000      0.000      0.000      0.011      0.000
          OF    137.800    -20.644      0.000      9.040      0.000      0.000      0.000      0.000      0.011      0.000
          OF    141.100    -20.607      0.000      9.044      0.000      0.000      0.000      0.000      0.011      0.000
          OF    144.400    -20.570      0.000      9.047      0.000      0.000      0.000      0.000      0.011      0.000
          OF    147.600    -20.533      0.000      9.050      0.000      0.000      0.000      0.000      0.011      0.000
          OF    150.900    -20.496      0.000      9.054      0.000      0.000      0.000      0.000      0.011      0.000
          OF    154.200    -20.459      0.000      9.057      0.000      0.000      0.000      0.000      0.011      0.000
          OF    157.500    -20.422      0.000      9.060      0.000      0.000      0.000      0.000      0.011      0.000
          OF    160.800    -20.385      0.000      9.063      0.000      0.000      0.000      0.000      0.011      0.000
          OF    164.000    -20.348      0.000      9.066      0.000      0.000      0.000      0.000      0.011      0.000
          OF    167.300    -20.311      0.000      9.069      0.000      0.000      0.000      0.000      0.011      0.000
          OF    170.600    -20.274      0.000      9.072      0.000      0.000      0.000      0.000      0.011      0.000
          OF    173.900    -20.237      0.000      9.075      0.000      0.000      0.000      0.000      0.011      0.000
          OF    177.200    -20.200      0.000      9.078      0.000      0.000      0.000      0.000      0.011      0.000
          OF    180.400    -20.163      0.000      9.081      0.000      0.000      0.000      0.000      0.011      0.000
          OF    183.700    -20.126      0.000      9.084      0.000      0.000      0.000      0.000      0.011      0.000
          OF    187.000    -20.089      0.000      9.087      0.000      0.000      0.000      0.000      0.011      0.000
          OF    190.300    -20.052      0.000      9.090      0.000      0.000      0.000      0.000      0.011      0.000
          OF    193.600    -20.015      0.000      9.093      0.000      0.000      0.000      0.000      0.011      0.000
          OF    196.800    -19.978      0.000      9.096      0.000      0.000      0.000      0.000      0.011      0.000
          OF    200.100    -19.941      0.000      9.099      0.000      0.000      0.000      0.000      0.011      0.000
          OF    203.400    -19.904      0.000      9.101      0.000      0.000      0.000      0.000      0.011      0.000
          OF    206.700    -19.867      0.000      9.104      0.000      0.000      0.000      0.000      0.011      0.000
          OF    210.000    -19.830      0.000      9.107      0.000      0.000      0.000      0.000      0.011      0.000
          OF    213.300    -19.793      0.000      9.109      0.000      0.000      0.000      0.000      0.012      0.000
          OF    216.500    -19.752      0.000      9.112      0.000      0.000      0.000      0.000      0.019      0.000
          OF    219.800    -19.671      0.000      9.115      0.000      0.000      0.000      0.000      0.026      0.000
          OF    223.100    -19.578      0.000      9.117      0.000      0.000      0.000      0.000      0.028      0.000
          OF    226.400    -19.485      0.000      9.119      0.000      0.000      0.000      0.000      0.028      0.000
          OF    229.700    -19.392      0.000      9.121      0.000      0.000      0.000      0.000      0.029      0.000
          OF    232.900    -19.299      0.000      9.123      0.000      0.000      0.000      0.000      0.029      0.000
          OF    236.200    -19.206      0.000      9.125      0.000      0.000      0.000      0.000      0.028      0.000
          OF    239.500    -19.112      0.000      9.128      0.000      0.000      0.000      0.000      0.028      0.000
          OF    242.800    -19.019      0.000      9.130      0.000      0.000      0.000      0.000      0.028      0.000
          OF    246.100    -18.926      0.000      9.132      0.000      0.000      0.000      0.000      0.029      0.000
          OF    249.300    -18.833      0.000      9.134      0.000      0.000      0.000      0.000      0.029      0.000
          OF    252.600    -18.740      0.000      9.137      0.000      0.000      0.000      0.000      0.028      0.000
          OF    255.900    -18.647      0.000      9.139      0.000      0.000      0.000      0.000      0.028      0.000
          OF    259.200    -18.553      0.000      9.142      0.000      0.000      0.000      0.000      0.028      0.000
          OF    262.500    -18.460      0.000      9.144      0.000      0.000      0.000      0.000      0.029      0.000
          OF    265.700    -18.367      0.000      9.147      0.000      0.000      0.000      0.000      0.029      0.000
          OF    269.000    -18.274      0.000      9.149      0.000      0.000      0.000      0.000      0.028      0.000
          OF    272.300    -18.181      0.000      9.151      0.000      0.000      0.000      0.000      0.028      0.000
          OF    275.600    -18.088      0.000      9.154      0.000      0.000      0.000      0.000      0.028      0.000
          OF    278.900    -17.995      0.000      9.156      0.000      0.000      0.000      0.000      0.028      0.000
          OF    282.200    -17.901      0.000      9.159      0.000      0.000      0.000      0.000      0.029      0.000
          OF    285.400    -17.808      0.000      9.162      0.000      0.000      0.000      0.000      0.029      0.000
          OF    288.700    -17.715      0.000      9.165      0.000      0.000      0.000      0.000      0.028      0.000
          OF    292.000    -17.622      0.000      9.167      0.000      0.000      0.000      0.000      0.026      0.000
          OF    295.300    -17.542      0.000      9.170      0.000      0.000      0.000      0.000      0.021      0.000
          OF    298.600    -17.486      0.000      9.174      0.000      0.000      0.000      0.000      0.017      0.000
          OF    301.800    -17.430      0.000      9.177      0.000      0.000      0.000      0.000      0.017      0.000
          OF    305.100    -17.374      0.000      9.180      0.000      0.000      0.000      0.000      0.017      0.000
          OF    308.400    -17.318      0.000      9.183      0.000      0.000      0.000      0.000      0.017      0.000
          OF    311.700    -17.262      0.000      9.185      0.000      0.000      0.000      0.000      0.017      0.000
          OF    315.000    -17.206      0.000      9.188      0.000      0.000      0.000      0.000      0.017      0.000
          OF    318.200    -17.151      0.000      9.191      0.000      0.000      0.000      0.000      0.017      0.000
          OF    321.500    -17.095      0.000      9.193      0.000      0.000      0.000      0.000      0.017      0.000
          OF    324.800    -17.039      0.000      9.196      0.000      0.000      0.000      0.000      0.017      0.000
          OF    328.100    -16.983      0.000      9.199      0.000      0.000      0.000      0.000      0.017      0.000
          OF    331.400    -16.927      0.000      9.201      0.000      0.000      0.000      0.000      0.017      0.000
          OF    334.600    -16.871      0.000      9.204      0.000      0.000      0.000      0.000      0.017      0.000
          OF    337.900    -16.815      0.000      9.207      0.000      0.000      0.000      0.000      0.017      0.000
          OF    341.200    -16.760      0.000      9.209      0.000      0.000      0.000      0.000      0.017      0.000
          OF    344.500    -16.704      0.000      9.212      0.000      0.000      0.000      0.000      0.017      0.000
          OF    347.800    -16.648      0.000      9.214      0.000      0.000      0.000      0.000      0.017      0.000
          OF    351.000    -16.592      0.000      9.217      0.000      0.000      0.000      0.000      0.017      0.000
          OF    354.300    -16.536      0.000      9.220      0.000      0.000      0.000      0.000      0.017      0.000
          OF    357.600    -16.480      0.000      9.222      0.000      0.000      0.000      0.000      0.013      0.000
          OF    360.900    -16.449      0.000      9.225      0.000      0.000      0.000      0.000      0.007      0.000
          OF    364.200    -16.436      0.000      9.228      0.000      0.000      0.000      0.000      0.004      0.000
          OF    367.500    -16.423      0.000      9.231      0.000      0.000      0.000      0.000      0.004      0.000
          OF    370.700    -16.410      0.000      9.234      0.000      0.000      0.000      0.000      0.004      0.000
          OF    374.000    -16.398      0.000      9.237      0.000      0.000      0.000      0.000      0.004      0.000
          OF    377.300    -16.385      0.000      9.240      0.000      0.000      0.000      0.000      0.004      0.000
          OF    380.600    -16.372      0.000      9.243      0.000      0.000      0.000      0.000      0.004      0.000
          OF    383.900    -16.359      0.000      9.245      0.000      0.000      0.000      0.000      0.004      0.000
          OF    387.100    -16.346      0.000      9.248      0.000      0.000      0.000      0.000      0.004      0.000
          OF    390.400    -16.333      0.000      9.251      0.000      0.000      0.000      0.000      0.004      0.000
          OF    393.700    -16.321      0.000      9.253      0.000      0.000      0.000      0.000      0.004      0.000
          OF    397.000    -16.308      0.000      9.256      0.000      0.000      0.000      0.000      0.004      0.000
          OF    400.300    -16.295      0.000      9.259      0.000      0.000      0.000      0.000      0.004      0.000
          OF    403.500    -16.282      0.000      9.261      0.000      0.000      0.000      0.000      0.004      0.000
          OF    406.800    -16.269      0.000      9.264      0.000      0.000      0.000      0.000      0.004      0.000
          OF    410.100    -16.257      0.000      9.266      0.000      0.000      0.000      0.000      0.004      0.000
          OF    413.400    -16.244      0.000      9.268      0.000      0.000      0.000      0.000      0.004      0.000
          OF    416.700    -16.231      0.000      9.271      0.000      0.000      0.000      0.000      0.004      0.000
          OF    419.900    -16.218      0.000      9.273      0.000      0.000      0.000      0.000      0.004      0.000
          OF    423.200    -16.205      0.000      9.275      0.000      0.000      0.000      0.000      0.004      0.000
          OF    426.500    -16.192      0.000      9.278      0.000      0.000      0.000      0.000      0.004      0.000
          OF    429.800    -16.180      0.000      9.280      0.000      0.000      0.000      0.000      0.004      0.000
          OF    433.100    -16.167      0.000      9.282      0.000      0.000      0.000      0.000      0.004      0.000
          OF    436.400    -16.154      0.000      9.284      0.000      0.000      0.000      0.000      0.004      0.000
          OF    439.600    -16.141      0.000      9.286      0.000      0.000      0.000      0.000      0.004      0.000
          OF    442.900    -16.128      0.000      9.288      0.000      0.000      0.000      0.000      0.004      0.000
          OF    446.200    -16.115      0.000      9.290      0.000      0.000      0.000      0.000      0.004      0.000
          OF    449.500    -16.103      0.000      9.292      0.000      0.000      0.000      0.000      0.004      0.000
          OF    452.800    -16.090      0.000      9.294      0.000      0.000      0.000      0.000      0.004      0.000
          OF    456.000    -16.077      0.000      9.296      0.000      0.000      0.000      0.000      0.004      0.000
          OF    459.300    -16.064      0.000      9.299      0.000      0.000      0.000      0.000      0.004      0.000
          OF    462.600    -16.051      0.000      9.300      0.000      0.000      0.000      0.000      0.004      0.000
          OF    465.900    -16.039      0.000      9.302      0.000      0.000      0.000      0.000      0.004      0.000
          OF    469.200    -16.026      0.000      9.304      0.000      0.000      0.000      0.000      0.004      0.000
          OF    472.400    -16.013      0.000      9.306      0.000      0.000      0.000      0.000      0.004      0.000
          OF    475.700    -16.000      0.000      9.308      0.000      0.000      0.000      0.000      0.004      0.000
          OF    479.000    -15.987      0.000      9.310      0.000      0.000      0.000      0.000      0.004      0.000
          OF    482.300    -15.974      0.000      9.311      0.000      0.000      0.000      0.000      0.004      0.000
          OF    485.600    -15.962      0.000      9.313      0.000      0.000      0.000      0.000      0.007      0.000
          OF    488.800    -15.929      0.000      9.315      0.000      0.000      0.000      0.000      0.014      0.000
          OF    492.100    -15.868      0.000      9.316      0.000      0.000      0.000      0.000      0.019      0.000
          OF    495.400    -15.806      0.000      9.317      0.000      0.000      0.000      0.000      0.018      0.000
          OF    498.700    -15.750      0.000      9.319      0.000      0.000      0.000      0.000      0.013      0.000
          OF    502.000    -15.723      0.000      9.320      0.000      0.000      0.000      0.000      0.007      0.000
          OF    505.200    -15.701      0.000      9.322      0.000      0.000      0.000      0.000      0.007      0.000
          OF    508.500    -15.680      0.000      9.324      0.000      0.000      0.000      0.000      0.007      0.000
          OF    511.800    -15.658      0.000      9.325      0.000      0.000      0.000      0.000      0.007      0.000
          OF    515.100    -15.637      0.000      9.327      0.000      0.000      0.000      0.000      0.007      0.000
          OF    518.400    -15.615      0.000      9.328      0.000      0.000      0.000      0.000      0.007      0.000
          OF    521.700    -15.594      0.000      9.330      0.000      0.000      0.000      0.000      0.007      0.000
          OF    524.900    -15.572      0.000      9.332      0.000      0.000      0.000      0.000      0.007      0.000
          OF    528.200    -15.551      0.000      9.333      0.000      0.000      0.000      0.000      0.006      0.000
          OF    531.500    -15.531      0.000      9.335      0.000      0.000      0.000      0.000      0.006      0.000
          OF    534.800    -15.512      0.000      9.336      0.000      0.000      0.000      0.000      0.006      0.000
          OF    538.100    -15.493      0.000      9.338      0.000      0.000      0.000      0.000      0.006      0.000
          OF    541.300    -15.474      0.000      9.339      0.000      0.000      0.000      0.000      0.006      0.000
          OF    544.600    -15.455      0.000      9.341      0.000      0.000      0.000      0.000      0.006      0.000
          OF    547.900    -15.436      0.000      9.342      0.000      0.000      0.000      0.000      0.006      0.000
          OF    551.200    -15.417      0.000      9.344      0.000      0.000      0.000      0.000      0.006      0.000
          OF    554.500    -15.398      0.000      9.345      0.000      0.000      0.000      0.000      0.006      0.000
          OF    557.700    -15.379      0.000      9.347      0.000      0.000      0.000      0.000      0.006      0.000
          OF    561.000    -15.360      0.000      9.348      0.000      0.000      0.000      0.000      0.006      0.000
          OF    564.300    -15.341      0.000      9.349      0.000      0.000      0.000      0.000      0.006      0.000
          OF    567.600    -15.322      0.000      9.351      0.000      0.000      0.000      0.000      0.006      0.000
          OF    570.900    -15.303      0.000      9.352      0.000      0.000      0.000      0.000      0.006      0.000
          OF    574.100    -15.284      0.000      9.354      0.000      0.000      0.000      0.000      0.006      0.000
          OF    577.400    -15.265      0.000      9.355      0.000      0.000      0.000      0.000      0.006      0.000
          OF    580.700    -15.246      0.000      9.356      0.000      0.000      0.000      0.000      0.006      0.000
          OF    584.000    -15.228      0.000      9.358      0.000      0.000      0.000      0.000      0.006      0.000
          OF    587.300    -15.209      0.000      9.359      0.000      0.000      0.000      0.000      0.006      0.000
          OF    590.500    -15.190      0.000      9.360      0.000      0.000      0.000      0.000      0.006      0.000
          OF    593.800    -15.171      0.000      9.361      0.000      0.000      0.000      0.000      0.006      0.000
          OF    597.100    -15.152      0.000      9.363      0.000      0.000      0.000      0.000      0.006      0.000
          OF    600.400    -15.133      0.000      9.364      0.000      0.000      0.000      0.000      0.006      0.000
          OF    603.700    -15.114      0.000      9.366      0.000      0.000      0.000      0.000      0.006      0.000
          OF    607.000    -15.095      0.000      9.367      0.000      0.000      0.000      0.000      0.006      0.000
          OF    610.200    -15.076      0.000      9.368      0.000      0.000      0.000      0.000      0.006      0.000
          OF    613.500    -15.057      0.000      9.370      0.000      0.000      0.000      0.000      0.006      0.000
          OF    616.800    -15.038      0.000      9.371      0.000      0.000      0.000      0.000      0.006      0.000
          OF    620.100    -15.019      0.000      9.372      0.000      0.000      0.000      0.000      0.006      0.000
          OF    623.400    -15.000      0.000      9.373      0.000      0.000      0.000      0.000      0.006      0.000
          OF    626.600    -14.981      0.000      9.375      0.000      0.000      0.000      0.000      0.006      0.000
          OF    629.900    -14.962      0.000      9.376      0.000      0.000      0.000      0.000      0.006      0.000
          OF    633.200    -14.943      0.000      9.377      0.000      0.000      0.000      0.000      0.006      0.000
          OF    636.500    -14.924      0.000      9.379      0.000      0.000      0.000      0.000      0.006      0.000
          OF    639.800    -14.905      0.000      9.380      0.000      0.000      0.000      0.000      0.006      0.000
          OF    643.000    -14.886      0.000      9.381      0.000      0.000      0.000      0.000      0.006      0.000
          OF    646.300    -14.867      0.000      9.382      0.000      0.000      0.000      0.000      0.006      0.000
          OF    649.600    -14.848      0.000      9.384      0.000      0.000      0.000      0.000      0.006      0.000
          OF    652.900    -14.829      0.000      9.385      0.000      0.000      0.000      0.000      0.006      0.000
          OF    656.200    -14.810      0.000      9.386      0.000      0.000      0.000      0.000      0.006      0.000
          OF    659.400    -14.791      0.000      9.387      0.000      0.000      0.000      0.000      0.006      0.000
          OF    662.700    -14.772      0.000      9.389      0.000      0.000      0.000      0.000      0.006      0.000
          OF    666.000    -14.753      0.000      9.390      0.000      0.000      0.000      0.000      0.006      0.000
          OF    669.300    -14.735      0.000      9.391      0.000      0.000      0.000      0.000      0.006      0.000
          OF    672.600    -14.716      0.000      9.392      0.000      0.000      0.000      0.000      0.006      0.000
          OF    675.900    -14.697      0.000      9.393      0.000      0.000      0.000      0.000      0.006      0.000
          OF    679.100    -14.678      0.000      9.394      0.000      0.000      0.000      0.000      0.006      0.000
          OF    682.400    -14.659      0.000      9.396      0.000      0.000      0.000      0.000      0.006      0.000
          OF    685.700    -14.640      0.000      9.397      0.000      0.000      0.000      0.000      0.006      0.000
          OF    689.000    -14.621      0.000      9.398      0.000      0.000      0.000      0.000      0.006      0.000
          OF    692.300    -14.602      0.000      9.399      0.000      0.000      0.000      0.000      0.006      0.000
          OF    695.500    -14.583      0.000      9.401      0.000      0.000      0.000      0.000      0.006      0.000
          OF    698.800    -14.564      0.000      9.402      0.000      0.000      0.000      0.000      0.006      0.000
          OF    702.100    -14.545      0.000      9.403      0.000      0.000      0.000      0.000      0.006      0.000
          OF    705.400    -14.526      0.000      9.404      0.000      0.000      0.000      0.000      0.006      0.000
          OF    708.700    -14.507      0.000      9.406      0.000      0.000      0.000      0.000      0.002      0.000
          OF    711.900    -14.513      0.000      9.407      0.000      0.000      0.000      0.000     -0.005      0.000
          OF    715.200    -14.537      0.000      9.408      0.000      0.000      0.000      0.000     -0.007      0.000
          OF    718.500    -14.561      0.000      9.410      0.000      0.000      0.000      0.000     -0.007      0.000
          OF    721.800    -14.585      0.000      9.411      0.000      0.000      0.000      0.000     -0.007      0.000
          OF    725.100    -14.609      0.000      9.413      0.000      0.000      0.000      0.000     -0.007      0.000
          OF    728.300    -14.633      0.000      9.414      0.000      0.000      0.000      0.000     -0.007      0.000
          OF    731.600    -14.657      0.000      9.415      0.000      0.000      0.000      0.000     -0.007      0.000
          OF    734.900    -14.681      0.000      9.417      0.000      0.000      0.000      0.000     -0.007      0.000
          OF    738.200    -14.705      0.000      9.418      0.000      0.000      0.000      0.000     -0.007      0.000
          OF    741.500    -14.729      0.000      9.419      0.000      0.000      0.000      0.000     -0.007      0.000
          OF    744.700    -14.753      0.000      9.421      0.000      0.000      0.000      0.000     -0.007      0.000
          OF    748.000    -14.777      0.000      9.422      0.000      0.000      0.000      0.000     -0.007      0.000
          OF    751.300    -14.801      0.000      9.423      0.000      0.000      0.000      0.000     -0.007      0.000
          OF    754.600    -14.824      0.000      9.424      0.000      0.000      0.000      0.000     -0.007      0.000
          OF    757.900    -14.848      0.000      9.425      0.000      0.000      0.000      0.000     -0.007      0.000
          OF    761.200    -14.872      0.000      9.427      0.000      0.000      0.000      0.000     -0.007      0.000
          OF    764.400    -14.896      0.000      9.428      0.000      0.000      0.000      0.000     -0.007      0.000
          OF    767.700    -14.920      0.000      9.429      0.000      0.000      0.000      0.000     -0.007      0.000
          OF    771.000    -14.944      0.000      9.430      0.000      0.000      0.000      0.000     -0.007      0.000
          OF    774.300    -14.968      0.000      9.431      0.000      0.000      0.000      0.000     -0.007      0.000
          OF    777.600    -14.992      0.000      9.432      0.000      0.000      0.000      0.000     -0.007      0.000
          OF    780.800    -15.016      0.000      9.433      0.000      0.000      0.000      0.000     -0.007      0.000
          OF    784.100    -15.037      0.000      9.434      0.000      0.000      0.000      0.000      0.005      0.000
          OF    787.400    -14.981      0.000      9.435      0.000      0.000      0.000      0.000      0.018      0.000
          OF    790.700    -14.916      0.000      9.435      0.000      0.000      0.000      0.000      0.020      0.000
          OF    794.000    -14.851      0.000      9.435      0.000      0.000      0.000      0.000      0.020      0.000
          OF    797.200    -14.786      0.000      9.436      0.000      0.000      0.000      0.000      0.020      0.000
          OF    800.500    -14.720      0.000      9.436      0.000      0.000      0.000      0.000      0.020      0.000
          OF    803.800    -14.655      0.000      9.437      0.000      0.000      0.000      0.000      0.020      0.000
          OF    807.100    -14.590      0.000      9.437      0.000      0.000      0.000      0.000      0.020      0.000
          OF    810.400    -14.525      0.000      9.438      0.000      0.000      0.000      0.000      0.020      0.000
          OF    813.600    -14.460      0.000      9.438      0.000      0.000      0.000      0.000      0.020      0.000
          OF    816.900    -14.395      0.000      9.439      0.000      0.000      0.000      0.000      0.020      0.000
          OF    820.200    -14.330      0.000      9.439      0.000      0.000      0.000      0.000      0.020      0.000
          OF    823.500    -14.265      0.000      9.440      0.000      0.000      0.000      0.000      0.020      0.000
          OF    826.800    -14.200      0.000      9.440      0.000      0.000      0.000      0.000      0.020      0.000
          OF    830.100    -14.135      0.000      9.441      0.000      0.000      0.000      0.000      0.020      0.000
          OF    833.300    -14.070      0.000      9.441      0.000      0.000      0.000      0.000      0.021      0.000
          OF    836.600    -13.996      0.000      9.442      0.000      0.000      0.000      0.000      0.028      0.000
          OF    839.900    -13.884      0.000      9.442      0.000      0.000      0.000      0.000      0.034      0.000
          OF    843.200    -13.769      0.000      9.442      0.000      0.000      0.000      0.000      0.035      0.000
          OF    846.500    -13.655      0.000      9.443      0.000      0.000      0.000      0.000      0.035      0.000
          OF    849.700    -13.540      0.000      9.443      0.000      0.000      0.000      0.000      0.035      0.000
          OF    853.000    -13.426      0.000      9.443      0.000      0.000      0.000      0.000      0.035      0.000
          OF    856.300    -13.311      0.000      9.443      0.000      0.000      0.000      0.000      0.035      0.000
          OF    859.600    -13.197      0.000      9.444      0.000      0.000      0.000      0.000      0.034      0.000
          OF    862.900    -13.083      0.000      9.444      0.000      0.000      0.000      0.000      0.035      0.000
          OF    866.100    -12.968      0.000      9.445      0.000      0.000      0.000      0.000      0.035      0.000
          OF    869.400    -12.854      0.000      9.445      0.000      0.000      0.000      0.000      0.035      0.000
          OF    872.700    -12.739      0.000      9.446      0.000      0.000      0.000      0.000      0.035      0.000
          OF    876.000    -12.625      0.000      9.446      0.000      0.000      0.000      0.000      0.035      0.000
          OF    879.300    -12.510      0.000      9.447      0.000      0.000      0.000      0.000      0.035      0.000
          OF    882.500    -12.396      0.000      9.448      0.000      0.000      0.000      0.000      0.035      0.000
          OF    885.800    -12.282      0.000      9.448      0.000      0.000      0.000      0.000      0.035      0.000
          OF    889.100    -12.167      0.000      9.449      0.000      0.000      0.000      0.000      0.035      0.000
          OF    892.400    -12.053      0.000      9.450      0.000      0.000      0.000      0.000      0.035      0.000
          OF    895.700    -11.938      0.000      9.450      0.000      0.000      0.000      0.000      0.035      0.000
          OF    898.900    -11.824      0.000      9.451      0.000      0.000      0.000      0.000      0.035      0.000
          OF    902.200    -11.709      0.000      9.452      0.000      0.000      0.000      0.000      0.035      0.000
          OF    905.500    -11.595      0.000      9.453      0.000      0.000      0.000      0.000      0.034      0.000
          OF    908.800    -11.481      0.000      9.454      0.000      0.000      0.000      0.000      0.035      0.000
          OF    912.100    -11.366      0.000      9.455      0.000      0.000      0.000      0.000      0.035      0.000
          OF    915.400    -11.252      0.000      9.456      0.000      0.000      0.000      0.000      0.035      0.000
          OF    918.600    -11.137      0.000      9.457      0.000      0.000      0.000      0.000      0.035      0.000
          OF    921.900    -11.023      0.000      9.458      0.000      0.000      0.000      0.000      0.035      0.000
          OF    925.200    -10.908      0.000      9.459      0.000      0.000      0.000      0.000      0.035      0.000
          OF    928.500    -10.794      0.000      9.461      0.000      0.000      0.000      0.000      0.034      0.000
          OF    931.800    -10.680      0.000      9.462      0.000      0.000      0.000      0.000      0.035      0.000
          OF    935.000    -10.565      0.000      9.463      0.000      0.000      0.000      0.000      0.035      0.000
          OF    938.300    -10.451      0.000      9.465      0.000      0.000      0.000      0.000      0.034      0.000
          OF    941.600    -10.341      0.000      9.466      0.000      0.000      0.000      0.000      0.031      0.000
          OF    944.900    -10.245      0.000      9.468      0.000      0.000      0.000      0.000      0.029      0.000
          OF    948.200    -10.149      0.000      9.470      0.000      0.000      0.000      0.000      0.029      0.000
          OF    951.400    -10.054      0.000      9.471      0.000      0.000      0.000      0.000      0.029      0.000
          OF    954.700     -9.959      0.000      9.474      0.000      0.000      0.000      0.000      0.029      0.000
          OF    958.000     -9.864      0.000      9.475      0.000      0.000      0.000      0.000      0.029      0.000
          OF    961.300     -9.768      0.000      9.477      0.000      0.000      0.000      0.000      0.029      0.000
          OF    964.600     -9.673      0.000      9.479      0.000      0.000      0.000      0.000      0.029      0.000
          OF    967.800     -9.578      0.000      9.481      0.000      0.000      0.000      0.000      0.029      0.000
          OF    971.100     -9.482      0.000      9.483      0.000      0.000      0.000      0.000      0.029      0.000
          OF    974.400     -9.387      0.000      9.485      0.000      0.000      0.000      0.000      0.029      0.000
          OF    977.700     -9.292      0.000      9.487      0.000      0.000      0.000      0.000      0.029      0.000
          OF    981.000     -9.196      0.000      9.489      0.000      0.000      0.000      0.000      0.029      0.000
          OF    984.200     -9.101      0.000      9.491      0.000      0.000      0.000      0.000      0.029      0.000
          OF    987.500     -9.005      0.000      9.493      0.000      0.000      0.000      0.000      0.029      0.000
          OF    990.800     -8.910      0.000      9.495      0.000      0.000      0.000      0.000      0.029      0.000
          OF    994.100     -8.815      0.000      9.498      0.000      0.000      0.000      0.000      0.029      0.000
          OF    997.400     -8.719      0.000      9.500      0.000      0.000      0.000      0.000      0.029      0.000
          OF   1000.700     -8.624      0.000      9.502      0.000      0.000      0.000      0.000      0.029      0.000
          OF   1003.900     -8.528      0.000      9.504      0.000      0.000      0.000      0.000      0.029      0.000
          OF   1007.200     -8.433      0.000      9.507      0.000      0.000      0.000      0.000      0.029      0.000
          OF   1010.500     -8.339      0.000      9.509      0.000      0.000      0.000      0.000      0.027      0.000
          OF   1013.800     -8.254      0.000      9.512      0.000      0.000      0.000      0.000      0.025      0.000
          OF   1017.100     -8.173      0.000      9.514      0.000      0.000      0.000      0.000      0.025      0.000
          OF   1020.300     -8.092      0.000      9.517      0.000      0.000      0.000      0.000      0.025      0.000
          OF   1023.600     -8.011      0.000      9.519      0.000      0.000      0.000      0.000      0.024      0.000
          OF   1026.900     -7.930      0.000      9.522      0.000      0.000      0.000      0.000      0.024      0.000
          OF   1030.200     -7.849      0.000      9.524      0.000      0.000      0.000      0.000      0.024      0.000
          OF   1033.500     -7.768      0.000      9.527      0.000      0.000      0.000      0.000      0.025      0.000
          OF   1036.700     -7.688      0.000      9.529      0.000      0.000      0.000      0.000      0.025      0.000
          OF   1040.000     -7.607      0.000      9.532      0.000      0.000      0.000      0.000      0.024      0.000
          OF   1043.300     -7.526      0.000      9.535      0.000      0.000      0.000      0.000      0.024      0.000
          OF   1046.600     -7.445      0.000      9.538      0.000      0.000      0.000      0.000      0.024      0.000
          OF   1049.900     -7.364      0.000      9.540      0.000      0.000      0.000      0.000      0.025      0.000
          OF   1053.100     -7.283      0.000      9.543      0.000      0.000      0.000      0.000      0.025      0.000
          OF   1056.400     -7.202      0.000      9.546      0.000      0.000      0.000      0.000      0.024      0.000
          OF   1059.700     -7.121      0.000      9.548      0.000      0.000      0.000      0.000      0.024      0.000
          OF   1063.000     -7.041      0.000      9.551      0.000      0.000      0.000      0.000      0.024      0.000
          OF   1066.300     -6.959      0.000      9.554      0.000      0.000      0.000      0.000      0.024      0.000
          OF   1069.600     -6.879      0.000      9.557      0.000      0.000      0.000      0.000      0.025      0.000
          OF   1072.800     -6.798      0.000      9.559      0.000      0.000      0.000      0.000      0.025      0.000
          OF   1076.100     -6.717      0.000      9.562      0.000      0.000      0.000      0.000      0.024      0.000
          OF   1079.400     -6.637      0.000      9.565      0.000      0.000      0.000      0.000      0.024      0.000
          OF   1082.700     -6.559      0.000      9.568      0.000      0.000      0.000      0.000      0.024      0.000
          OF   1086.000     -6.480      0.000      9.571      0.000      0.000      0.000      0.000      0.024      0.000
          OF   1089.200     -6.402      0.000      9.573      0.000      0.000      0.000      0.000      0.024      0.000
          OF   1092.500     -6.323      0.000      9.576      0.000      0.000      0.000      0.000      0.024      0.000
          OF   1095.800     -6.245      0.000      9.579      0.000      0.000      0.000      0.000      0.024      0.000
          OF   1099.100     -6.166      0.000      9.582      0.000      0.000      0.000      0.000      0.024      0.000
          OF   1102.400     -6.088      0.000      9.585      0.000      0.000      0.000      0.000      0.024      0.000
          OF   1105.600     -6.009      0.000      9.588      0.000      0.000      0.000      0.000      0.024      0.000
          OF   1108.900     -5.930      0.000      9.591      0.000      0.000      0.000      0.000      0.024      0.000
          OF   1112.200     -5.852      0.000      9.593      0.000      0.000      0.000      0.000      0.024      0.000
          OF   1115.500     -5.773      0.000      9.596      0.000      0.000      0.000      0.000      0.024      0.000
          OF   1118.800     -5.695      0.000      9.599      0.000      0.000      0.000      0.000      0.024      0.000
          OF   1122.000     -5.616      0.000      9.602      0.000      0.000      0.000      0.000      0.024      0.000
          OF   1125.300     -5.541      0.000      9.605      0.000      0.000      0.000      0.000      0.022      0.000
          OF   1128.600     -5.473      0.000      9.608      0.000      0.000      0.000      0.000      0.021      0.000
          OF   1131.900     -5.406      0.000      9.611      0.000      0.000      0.000      0.000      0.020      0.000
          OF   1135.200     -5.339      0.000      9.614      0.000      0.000      0.000      0.000      0.021      0.000
          OF   1138.400     -5.271      0.000      9.617      0.000      0.000      0.000      0.000      0.021      0.000
          OF   1141.700     -5.204      0.000      9.620      0.000      0.000      0.000      0.000      0.020      0.000
          OF   1145.000     -5.136      0.000      9.623      0.000      0.000      0.000      0.000      0.020      0.000
          OF   1148.300     -5.069      0.000      9.626      0.000      0.000      0.000      0.000      0.020      0.000
          OF   1151.600     -5.002      0.000      9.629      0.000      0.000      0.000      0.000      0.020      0.000
          OF   1154.900     -4.934      0.000      9.632      0.000      0.000      0.000      0.000      0.021      0.000
          OF   1158.100     -4.867      0.000      9.635      0.000      0.000      0.000      0.000      0.021      0.000
          OF   1161.400     -4.799      0.000      9.638      0.000      0.000      0.000      0.000      0.020      0.000
          OF   1164.700     -4.732      0.000      9.641      0.000      0.000      0.000      0.000      0.020      0.000
          OF   1168.000     -4.665      0.000      9.644      0.000      0.000      0.000      0.000      0.021      0.000
          OF   1171.300     -4.597      0.000      9.646      0.000      0.000      0.000      0.000      0.021      0.000
          OF   1174.500     -4.527      0.000      9.649      0.000      0.000      0.000      0.000      0.022      0.000
          OF   1177.800     -4.456      0.000      9.652      0.000      0.000      0.000      0.000      0.021      0.000
          OF   1181.100     -4.386      0.000      9.655      0.000      0.000      0.000      0.000      0.021      0.000
          OF   1184.400     -4.315      0.000      9.658      0.000      0.000      0.000      0.000      0.021      0.000
          OF   1187.700     -4.244      0.000      9.661      0.000      0.000      0.000      0.000      0.022      0.000
          OF   1190.900     -4.174      0.000      9.664      0.000      0.000      0.000      0.000      0.022      0.000
          OF   1194.200     -4.103      0.000      9.667      0.000      0.000      0.000      0.000      0.021      0.000
          OF   1197.500     -4.032      0.000      9.670      0.000      0.000      0.000      0.000      0.021      0.000
          OF   1200.800     -3.962      0.000      9.673      0.000      0.000      0.000      0.000      0.021      0.000
          OF   1204.100     -3.891      0.000      9.676      0.000      0.000      0.000      0.000      0.022      0.000
          OF   1207.300     -3.820      0.000      9.678      0.000      0.000      0.000      0.000      0.022      0.000
          OF   1210.600     -3.750      0.000      9.681      0.000      0.000      0.000      0.000      0.021      0.000
          OF   1213.900     -3.679      0.000      9.684      0.000      0.000      0.000      0.000      0.018      0.000
          OF   1217.200     -3.629      0.000      9.688      0.000      0.000      0.000      0.000      0.015      0.000
          OF   1220.500     -3.582      0.000      9.691      0.000      0.000      0.000      0.000      0.014      0.000
          OF   1223.800     -3.535      0.000      9.694      0.000      0.000      0.000      0.000      0.014      0.000
          OF   1227.000     -3.487      0.000      9.697      0.000      0.000      0.000      0.000      0.014      0.000
          OF   1230.300     -3.440      0.000      9.700      0.000      0.000      0.000      0.000      0.014      0.000
          OF   1233.600     -3.393      0.000      9.703      0.000      0.000      0.000      0.000      0.014      0.000
          OF   1236.900     -3.345      0.000      9.706      0.000      0.000      0.000      0.000      0.014      0.000
          OF   1240.200     -3.298      0.000      9.709      0.000      0.000      0.000      0.000      0.014      0.000
          OF   1243.400     -3.251      0.000      9.712      0.000      0.000      0.000      0.000      0.014      0.000
          OF   1246.700     -3.204      0.000      9.715      0.000      0.000      0.000      0.000      0.014      0.000
          OF   1250.000     -3.157      0.000      9.717      0.000      0.000      0.000      0.000      0.014      0.000
          OF   1253.300     -3.109      0.000      9.720      0.000      0.000      0.000      0.000      0.014      0.000
          OF   1256.600     -3.062      0.000      9.723      0.000      0.000      0.000      0.000      0.014      0.000
          OF   1259.800     -3.015      0.000      9.726      0.000      0.000      0.000      0.000      0.014      0.000
          OF   1263.100     -2.967      0.000      9.728      0.000      0.000      0.000      0.000      0.014      0.000
          OF   1266.400     -2.920      0.000      9.731      0.000      0.000      0.000      0.000      0.014      0.000
          OF   1269.700     -2.873      0.000      9.734      0.000      0.000      0.000      0.000      0.014      0.000
          OF   1273.000     -2.826      0.000      9.736      0.000      0.000      0.000      0.000      0.014      0.000
          OF   1276.200     -2.778      0.000      9.739      0.000      0.000      0.000      0.000      0.014      0.000
          OF   1279.500     -2.731      0.000      9.741      0.000      0.000      0.000      0.000      0.014      0.000
          OF   1282.800     -2.684      0.000      9.744      0.000      0.000      0.000      0.000      0.014      0.000
          OF   1286.100     -2.637      0.000      9.747      0.000      0.000      0.000      0.000      0.014      0.000
          OF   1289.400     -2.589      0.000      9.749      0.000      0.000      0.000      0.000      0.014      0.000
          OF   1292.600     -2.542      0.000      9.752      0.000      0.000      0.000      0.000      0.014      0.000
          OF   1295.900     -2.495      0.000      9.754      0.000      0.000      0.000      0.000      0.014      0.000
          OF   1299.200     -2.448      0.000      9.757      0.000      0.000      0.000      0.000      0.014      0.000
          OF   1302.500     -2.400      0.000      9.759      0.000      0.000      0.000      0.000      0.014      0.000
          OF   1305.800     -2.353      0.000      9.762      0.000      0.000      0.000      0.000      0.014      0.000
          OF   1309.100     -2.306      0.000      9.764      0.000      0.000      0.000      0.000      0.014      0.000
          OF   1312.300     -2.259      0.000      9.766      0.000      0.000      0.000      0.000      0.014      0.000
          OF   1315.600     -2.211      0.000      9.769      0.000      0.000      0.000      0.000      0.014      0.000
          OF   1318.900     -2.164      0.000      9.771      0.000      0.000      0.000      0.000      0.014      0.000
          OF   1322.200     -2.117      0.000      9.774      0.000      0.000      0.000      0.000      0.014      0.000
          OF   1325.500     -2.069      0.000      9.776      0.000      0.000      0.000      0.000      0.014      0.000
          OF   1328.700     -2.022      0.000      9.778      0.000      0.000      0.000      0.000      0.014      0.000
          OF   1332.000     -1.975      0.000      9.780      0.000      0.000      0.000      0.000      0.014      0.000
          OF   1335.300     -1.928      0.000      9.783      0.000      0.000      0.000      0.000      0.014      0.000
          OF   1338.600     -1.880      0.000      9.785      0.000      0.000      0.000      0.000      0.014      0.000
          OF   1341.900     -1.833      0.000      9.787      0.000      0.000      0.000      0.000      0.014      0.000
          OF   1345.100     -1.786      0.000      9.789      0.000      0.000      0.000      0.000      0.014      0.000
          OF   1348.400     -1.739      0.000      9.792      0.000      0.000      0.000      0.000      0.014      0.000
          OF   1351.700     -1.691      0.000      9.794      0.000      0.000      0.000      0.000      0.014      0.000
          OF   1355.000     -1.644      0.000      9.796      0.000      0.000      0.000      0.000      0.014      0.000
          OF   1358.300     -1.597      0.000      9.798      0.000      0.000      0.000      0.000      0.015      0.000
          OF   1361.500     -1.549      0.000      9.800      0.000      0.000      0.000      0.000      0.014      0.000
          OF   1364.800     -1.502      0.000      9.803      0.000      0.000      0.000      0.000      0.014      0.000
          OF   1368.100     -1.455      0.000      9.805      0.000      0.000      0.000      0.000      0.014      0.000
          OF   1371.400     -1.408      0.000      9.807      0.000      0.000      0.000      0.000      0.014      0.000
          OF   1374.700     -1.360      0.000      9.809      0.000      0.000      0.000      0.000      0.015      0.000
          OF   1377.900     -1.313      0.000      9.811      0.000      0.000      0.000      0.000      0.014      0.000
          OF   1381.200     -1.266      0.000      9.814      0.000      0.000      0.000      0.000      0.014      0.000
          OF   1384.500     -1.218      0.000      9.815      0.000      0.000      0.000      0.000      0.015      0.000
          OF   1387.800     -1.168      0.000      9.818      0.000      0.000      0.000      0.000      0.015      0.000
          OF   1391.100     -1.117      0.000      9.820      0.000      0.000      0.000      0.000      0.015      0.000
          OF   1394.400     -1.065      0.000      9.821      0.000      0.000      0.000      0.000      0.016      0.000
          OF   1397.600     -1.015      0.000      9.824      0.000      0.000      0.000      0.000      0.015      0.000
          OF   1400.900     -0.965      0.000      9.826      0.000      0.000      0.000      0.000      0.015      0.000
          OF   1404.200     -0.916      0.000      9.828      0.000      0.000      0.000      0.000      0.015      0.000
          OF   1407.500     -0.867      0.000      9.830      0.000      0.000      0.000      0.000      0.015      0.000
          OF   1410.800     -0.817      0.000      9.832      0.000      0.000      0.000      0.000      0.015      0.000
          OF   1414.000     -0.768      0.000      9.834      0.000      0.000      0.000      0.000      0.015      0.000
          OF   1417.300     -0.718      0.000      9.836      0.000      0.000      0.000      0.000      0.015      0.000
          OF   1420.600     -0.669      0.000      9.838      0.000      0.000      0.000      0.000      0.015      0.000
          OF   1423.900     -0.620      0.000      9.840      0.000      0.000      0.000      0.000      0.015      0.000
          OF   1427.200     -0.570      0.000      9.842      0.000      0.000      0.000      0.000      0.015      0.000
          OF   1430.400     -0.521      0.000      9.844      0.000      0.000      0.000      0.000      0.015      0.000
          OF   1433.700     -0.471      0.000      9.846      0.000      0.000      0.000      0.000      0.015      0.000
          OF   1437.000     -0.422      0.000      9.849      0.000      0.000      0.000      0.000      0.015      0.000
          OF   1440.300     -0.373      0.000      9.851      0.000      0.000      0.000      0.000      0.015      0.000
          OF   1443.600     -0.323      0.000      9.853      0.000      0.000      0.000      0.000      0.009      0.000
          OF   1446.800     -0.314      0.000      9.855      0.000      0.000      0.000      0.000      0.002      0.000
          OF   1450.100     -0.311      0.000      9.857      0.000      0.000      0.000      0.000      0.001      0.000
          OF   1453.400     -0.308      0.000      9.860      0.000      0.000      0.000      0.000      0.001      0.000
          OF   1456.700     -0.305      0.000      9.862      0.000      0.000      0.000      0.000      0.001      0.000
          OF   1460.000     -0.301      0.000      9.864      0.000      0.000      0.000      0.000      0.001      0.000
          OF   1463.300     -0.298      0.000      9.866      0.000      0.000      0.000      0.000      0.050      0.000
          IF   1466.500      0.023      0.000      9.865      0.000      0.000      0.000      0.000      0.058      0.000
          IF   1469.800      0.076      0.000      9.867      0.000      0.000      0.000      0.000      0.016      0.000
          IF   1473.100      0.129      0.000      9.869      0.000      0.000      0.000      0.000      0.016      0.000
          IF   1476.400      0.182      0.000      9.871      0.000      0.000      0.000      0.000      0.016      0.000
          IF   1479.700      0.235      0.000      9.873      0.000      0.000      0.000      0.000      0.016      0.000
          IF   1482.900      0.288      0.000      9.875      0.000      0.000      0.000      0.000      0.016      0.000
          IF   1486.200      0.340      0.000      9.877      0.000      0.000      0.000      0.000      0.016      0.000
          IF   1489.500      0.393      0.000      9.879      0.000      0.000      0.000      0.000      0.016      0.000
          IF   1492.800      0.446      0.000      9.881      0.000      0.000      0.000      0.000      0.016      0.000
          IF   1496.100      0.499      0.000      9.883      0.000      0.000      0.000      0.000      0.016      0.000
          IF   1499.300      0.552      0.000      9.885      0.000      0.000      0.000      0.000      0.016      0.000
          IF   1502.600      0.605      0.000      9.887      0.000      0.000      0.000      0.000      0.016      0.000
          IF   1505.900      0.658      0.000      9.889      0.000      0.000      0.000      0.000      0.017      0.000
          IF   1509.200      0.716      0.000      9.891      0.000      0.000      0.000      0.000      0.018      0.000
          IF   1512.500      0.774      0.000      9.893      0.000      0.000      0.000      0.000      0.018      0.000
          IF   1515.700      0.831      0.000      9.896      0.000      0.000      0.000      0.000      0.018      0.000
          IF   1519.000      0.889      0.000      9.897      0.000      0.000      0.000      0.000      0.018      0.000
          IF   1522.300      0.947      0.000      9.899      0.000      0.000      0.000      0.000      0.018      0.000
          IF   1525.600      1.004      0.000      9.901      0.000      0.000      0.000      0.000      0.018      0.000
          IF   1528.900      1.062      0.000      9.904      0.000      0.000      0.000      0.000      0.018      0.000
          IF   1532.100      1.120      0.000      9.906      0.000      0.000      0.000      0.000      0.018      0.000
          IF   1535.400      1.177      0.000      9.908      0.000      0.000      0.000      0.000      0.018      0.000
          IF   1538.700      1.235      0.000      9.910      0.000      0.000      0.000      0.000      0.018      0.000
          IF   1542.000      1.293      0.000      9.912      0.000      0.000      0.000      0.000      0.018      0.000
          IF   1545.300      1.350      0.000      9.914      0.000      0.000      0.000      0.000      0.018      0.000
          IF   1548.600      1.412      0.000      9.916      0.000      0.000      0.000      0.000      0.019      0.000
          IF   1551.800      1.474      0.000      9.918      0.000      0.000      0.000      0.000      0.019      0.000
          IF   1555.100      1.535      0.000      9.920      0.000      0.000      0.000      0.000      0.019      0.000
          IF   1558.400      1.597      0.000      9.922      0.000      0.000      0.000      0.000      0.019      0.000
          IF   1561.700      1.659      0.000      9.924      0.000      0.000      0.000      0.000      0.019      0.000
          IF   1565.000      1.721      0.000      9.927      0.000      0.000      0.000      0.000      0.019      0.000
          IF   1568.200      1.783      0.000      9.929      0.000      0.000      0.000      0.000      0.019      0.000
          IF   1571.500      1.845      0.000      9.931      0.000      0.000      0.000      0.000      0.019      0.000
          IF   1574.800      1.906      0.000      9.933      0.000      0.000      0.000      0.000      0.019      0.000
          IF   1578.100      1.968      0.000      9.935      0.000      0.000      0.000      0.000      0.019      0.000
          IF   1581.400      2.030      0.000      9.937      0.000      0.000      0.000      0.000      0.019      0.000
          IF   1584.600      2.092      0.000      9.939      0.000      0.000      0.000      0.000      0.019      0.000
          IF   1587.900      2.154      0.000      9.942      0.000      0.000      0.000      0.000      0.019      0.000
          IF   1591.200      2.216      0.000      9.944      0.000      0.000      0.000      0.000      0.026      0.000
          IF   1594.500      2.323      0.000      9.946      0.000      0.000      0.000      0.000      0.052      0.000
          IF   1597.800      2.555      0.000      9.946      0.000      0.000      0.000      0.000      0.072      0.000
          IF   1601.000      2.788      0.000      9.947      0.000      0.000      0.000      0.000      0.072      0.000
          IF   1604.300      3.020      0.000      9.948      0.000      0.000      0.000      0.000      0.070      0.000
          IF   1607.600      3.253      0.000      9.949      0.000      0.000      0.000      0.000      0.070      0.000
          IF   1610.900      3.485      0.000      9.952      0.000      0.000      0.000      0.000      0.070      0.000
          IF   1614.200      3.718      0.000      9.955      0.000      0.000      0.000      0.000      0.070      0.000
          IF   1617.500      3.950      0.000      9.958      0.000      0.000      0.000      0.000      0.068      0.000
          IF   1620.700      4.160      0.000      9.963      0.000      0.000      0.000      0.000      0.058      0.000
          IF   1624.000      4.328      0.000      9.969      0.000      0.000      0.000      0.000      0.051      0.000
          IF   1627.300      4.496      0.000      9.976      0.000      0.000      0.000      0.000      0.051      0.000
          IF   1630.600      4.663      0.000      9.984      0.000      0.000      0.000      0.000      0.051      0.000
          IF   1633.900      4.831      0.000      9.992      0.000      0.000      0.000      0.000      0.052      0.000
          IF   1637.100      4.998      0.000     10.001      0.000      0.000      0.000      0.000      0.052      0.000
          IF   1640.400      5.166      0.000     10.010      0.000      0.000      0.000      0.000      0.051      0.000
          IF   1643.700      5.333      0.000     10.019      0.000      0.000      0.000      0.000      0.051      0.000
          IF   1647.000      5.501      0.000     10.030      0.000      0.000      0.000      0.000      0.051      0.000
          IF   1650.300      5.669      0.000     10.040      0.000      0.000      0.000      0.000      0.052      0.000
          IF   1653.500      5.836      0.000     10.052      0.000      0.000      0.000      0.000      0.057      0.000
          IF   1656.800      6.039      0.000     10.063      0.000      0.000      0.000      0.000      0.071      0.000
          IF   1660.100      6.302      0.000     10.074      0.000      0.000      0.000      0.000      0.080      0.000
          IF   1663.400      6.566      0.000     10.087      0.000      0.000      0.000      0.000      0.080      0.000
          IF   1666.700      6.829      0.000     10.103      0.000      0.000      0.000      0.000      0.081      0.000
          IF   1669.900      7.092      0.000     10.121      0.000      0.000      0.000      0.000      0.081      0.000
          IF   1673.200      7.356      0.000     10.146      0.000      0.000      0.000      0.000      0.080      0.000
          IF   1676.500      7.619      0.000     10.179      0.000      0.000      0.000      0.000      0.080      0.000
          IF   1679.800      7.881      0.000     10.216      0.000      0.000      0.000      0.000      0.080      0.000
          IF   1683.100      8.144      0.000     10.254      0.000      0.000      0.000      0.000      0.081      0.000
          IF   1686.300      8.407      0.000     10.291      0.000      0.000      0.000      0.000      0.087      0.000
          IF   1689.600      8.711      0.000     10.322      0.000      0.000      0.000      0.000      0.467      0.000
          IF   1690.400     10.322      0.000     10.322      0.000      0.000      0.000      0.000      2.014      0.000
          AS   1818.600      9.432      0.000      9.432      0.000      0.000      0.000      0.000     -0.171      0.000
          IF   1821.600      8.920      0.000      9.432      0.000      0.000      0.000      0.000     -0.111      0.000
          IF   1823.600      8.878      0.000      9.432      0.000      0.000      0.000      0.000     -0.025      0.000
          IF   1833.600      8.624      0.000      9.432      0.000      0.000      0.000      0.000     -0.054      0.000
          IF   1845.600      7.701      0.000      9.432      0.000      0.000      0.000      0.000     -0.071      0.000
          IF   1847.600      7.627      0.000      9.432      0.000      0.000      0.000      0.000      0.011      0.000
          IF   1859.600      7.850      0.000      9.432      0.000      0.000      0.000      0.000     -0.006      0.000
          IF   1871.600      7.481      0.000      9.432      0.000      0.000      0.000      0.000     -0.028      0.000
          IF   1879.600      7.296      0.000      9.432      0.000      0.000      0.000      0.000     -0.032      0.000
          IF   1891.600      6.843      0.000      9.432      0.000      0.000      0.000      0.000     -0.020      0.000
          IF   1899.600      6.889      0.000      9.432      0.000      0.000      0.000      0.000     -0.004      0.000
          IF   1911.600      6.768      0.000      9.432      0.000      0.000      0.000      0.000     -0.020      0.000
          IF   1929.600      6.291      0.000      9.432      0.000      0.000      0.000      0.000     -0.031      0.000
          IF   1931.600      6.155      0.000      9.432      0.000      0.000      0.000      0.000     -0.011      0.000
          IF   1965.600      5.889      0.000      9.432      0.000      0.000      0.000      0.000     -0.008      0.000
          IF   1967.600      5.872      0.000      9.432      0.000      0.000      0.000      0.000      0.005      0.000
          IF   1987.600      6.001      0.000      9.432      0.000      0.000      0.000      0.000      0.005      0.000
          IF   1989.600      5.982      0.000      9.432      0.000      0.000      0.000      0.000      0.009      0.000
          IF   2035.600      6.428      0.000      9.431      0.000      0.000      0.000      0.000      0.002      0.000
          IF   2051.600      6.118      0.000      9.431      0.000      0.000      0.000      0.000     -0.018      0.000
          IF   2053.600      6.110      0.000      9.431      0.000      0.000      0.000      0.000      0.008      0.000
          IF   2095.600      6.476      0.000      9.430      0.000      0.000      0.000      0.000      0.002      0.000
          IF   2103.600      6.225      0.000      9.430      0.000      0.000      0.000      0.000     -0.027      0.000
          IF   2121.600      5.777      0.000      9.430      0.000      0.000      0.000      0.000     -0.010      0.000
          IF   2137.600      5.895      0.000      9.429      0.000      0.000      0.000      0.000      0.003      0.000
          IF   2153.600      5.870      0.000      9.429      0.000      0.000      0.000      0.000     -0.002      0.000
          IF   2155.600      5.867      0.000      9.429      0.000      0.000      0.000      0.000     -0.018      0.000
          IF   2177.600      5.450      0.000      9.429      0.000      0.000      0.000      0.000     -0.019      0.000
          IF   2179.600      5.423      0.000      9.429      0.000      0.000      0.000      0.000      0.005      0.000
          IF   2197.600      5.547      0.000      9.429      0.000      0.000      0.000      0.000      0.004      0.000
          IF   2201.600      5.517      0.000      9.429      0.000      0.000      0.000      0.000      0.010      0.000
          IF   2225.600      5.815      0.000      9.430      0.000      0.000      0.000      0.000      0.012      0.000
          IF   2227.600      5.823      0.000      9.430      0.000      0.000      0.000      0.000      0.019      0.000
          IF   2259.600      6.444      0.000      9.432      0.000      0.000      0.000      0.000     -0.001      0.000
          IF   2275.600      5.785      0.000      9.432      0.000      0.000      0.000      0.000     -0.036      0.000
          IF   2277.600      5.804      0.000      9.432      0.000      0.000      0.000      0.000      0.010      0.000
          IF   2297.600      6.002      0.000      9.433      0.000      0.000      0.000      0.000     -0.004      0.000
          IF   2305.600      5.695      0.000      9.433      0.000      0.000      0.000      0.000     -0.026      0.000
          IF   2327.600      5.235      0.000      9.434      0.000      0.000      0.000      0.000     -0.019      0.000
          IF   2329.600      5.238      0.000      9.434      0.000      0.000      0.000      0.000      0.014      0.000
          IF   2353.600      5.612      0.000      9.436      0.000      0.000      0.000      0.000      0.004      0.000
          IF   2377.600      5.436      0.000      9.437      0.000      0.000      0.000      0.000     -0.007      0.000
          IF   2379.600      5.433      0.000      9.438      0.000      0.000      0.000      0.000     -0.004      0.000
          IF   2397.600      5.362      0.000      9.439      0.000      0.000      0.000      0.000     -0.005      0.000
          IF   2399.600      5.341      0.000      9.439      0.000      0.000      0.000      0.000     -0.007      0.000
          IF   2437.600      5.086      0.000      9.441      0.000      0.000      0.000      0.000     -0.008      0.000
          IF   2439.600      5.030      0.000      9.442      0.000      0.000      0.000      0.000      0.007      0.000
          IF   2477.600      5.374      0.000      9.443      0.000      0.000      0.000      0.000      0.009      0.000
          IF   2479.600      5.407      0.000      9.443      0.000      0.000      0.000      0.000     -0.016      0.000
          IF   2513.600      4.808      0.000      9.443      0.000      0.000      0.000      0.000     -0.017      0.000
          IF   2515.600      4.785      0.000      9.443      0.000      0.000      0.000      0.000      0.017      0.000
          IF   2549.600      5.420      0.000      9.443      0.000      0.000      0.000      0.000      0.022      0.000
          IF   2565.600      5.885      0.000      9.443      0.000      0.000      0.000      0.000      0.018      0.000
          IF   2585.600      6.071      0.000      9.443      0.000      0.000      0.000      0.000      0.006      0.000
          IF   2587.600      6.022      0.000      9.443      0.000      0.000      0.000      0.000     -0.001      0.000
          IF   2605.600      6.061      0.000      9.444      0.000      0.000      0.000      0.000     -0.001      0.000
          IF   2611.600      6.003      0.000      9.444      0.000      0.000      0.000      0.000     -0.006      0.000
          IF   2635.600      5.890      0.000      9.444      0.000      0.000      0.000      0.000      0.001      0.000
          IF   2647.600      6.025      0.000      9.444      0.000      0.000      0.000      0.000     -0.015      0.000
          IF   2653.600      5.618      0.000      9.444      0.000      0.000      0.000      0.000     -0.008      0.000
          IF   2677.600      5.792      0.000      9.445      0.000      0.000      0.000      0.000      0.012      0.000
          IF   2693.600      6.091      0.000      9.445      0.000      0.000      0.000      0.000      0.017      0.000
          IF   2695.600      6.090      0.000      9.445      0.000      0.000      0.000      0.000     -0.006      0.000
          IF   2717.600      5.946      0.000      9.445      0.000      0.000      0.000      0.000     -0.008      0.000
          IF   2719.600      5.891      0.000      9.445      0.000      0.000      0.000      0.000     -0.009      0.000
          IF   2735.600      5.783      0.000      9.445      0.000      0.000      0.000      0.000      0.001      0.000
          IF   2761.600      5.920      0.000      9.446      0.000      0.000      0.000      0.000      0.002      0.000
          IF   2763.600      5.840      0.000      9.446      0.000      0.000      0.000      0.000      0.000      0.000
          IF   2781.600      5.918      0.000      9.446      0.000      0.000      0.000      0.000      0.005      0.000
          IF   2783.600      5.933      0.000      9.446      0.000      0.000      0.000      0.000      0.004      0.000
          IF   2803.600      6.002      0.000      9.447      0.000      0.000      0.000      0.000      0.004      0.000
          IF   2805.600      6.020      0.000      9.447      0.000      0.000      0.000      0.000      0.006      0.000
          IF   2827.600      6.155      0.000      9.447      0.000      0.000      0.000      0.000      0.006      0.000
          IF   2845.600      6.265      0.000      9.448      0.000      0.000      0.000      0.000      0.003      0.000
          IF   2855.600      6.250      0.000      9.448      0.000      0.000      0.000      0.000     -0.003      0.000
          IF   2873.600      6.174      0.000      9.448      0.000      0.000      0.000      0.000     -0.004      0.000
          IF   2875.600      6.162      0.000      9.448      0.000      0.000      0.000      0.000      0.009      0.000
          IF   2895.600      6.368      0.000      9.448      0.000      0.000      0.000      0.000      0.008      0.000
          IF   2899.600      6.353      0.000      9.448      0.000      0.000      0.000      0.000     -0.003      0.000
          IF   2923.600      6.288      0.000      9.448      0.000      0.000      0.000      0.000     -0.002      0.000
          IF   2925.600      6.298      0.000      9.448      0.000      0.000      0.000      0.000      0.016      0.000
          IF   2949.600      6.701      0.000      9.448      0.000      0.000      0.000      0.000      0.010      0.000
          IF   2971.600      6.738      0.000      9.448      0.000      0.000      0.000      0.000      0.001      0.000
          IF   2973.600      6.733      0.000      9.448      0.000      0.000      0.000      0.000     -0.005      0.000
          IF   2987.600      6.654      0.000      9.448      0.000      0.000      0.000      0.000     -0.004      0.000
          IF   2991.600      6.665      0.000      9.448      0.000      0.000      0.000      0.000      0.002      0.000
          IF   3005.600      6.700      0.000      9.448      0.000      0.000      0.000      0.000      0.002      0.000
          IF   3007.600      6.690      0.000      9.448      0.000      0.000      0.000      0.000      0.040      0.000
          IF   3021.600      7.334      0.000      9.448      0.000      0.000      0.000      0.000      0.041      0.000
          IF   3037.600      7.924      0.000      9.448      0.000      0.000      0.000      0.000      0.034      0.000
          IF   3039.600      7.951      0.000      9.448      0.000      0.000      0.000      0.000      0.021      0.000
          IF   3051.600      8.224      0.000      9.448      0.000      0.000      0.000      0.000     -0.012      0.000
          IF   3059.600      7.714      0.000      9.447      0.000      0.000      0.000      0.000     -0.048      0.000
          IF   3075.600      7.061      0.000      9.447      0.000      0.000      0.000      0.000     -0.038      0.000
          IF   3077.600      7.038      0.000      9.446      0.000      0.000      0.000      0.000      0.017      0.000
          IF   3099.600      7.478      0.000      9.446      0.000      0.000      0.000      0.000      0.016      0.000
          IF   3101.600      7.431      0.000      9.446      0.000      0.000      0.000      0.000     -0.033      0.000
          IF   3125.600      6.623      0.000      9.444      0.000      0.000      0.000      0.000     -0.036      0.000
          IF   3127.600      6.487      0.000      9.444      0.000      0.000      0.000      0.000      0.000      0.000
          IF   3143.600      6.624      0.000      9.444      0.000      0.000      0.000      0.000      0.009      0.000
          IF   3145.600      6.649      0.000      9.444      0.000      0.000      0.000      0.000      0.032      0.000
          IF   3163.600      7.260      0.000      9.443      0.000      0.000      0.000      0.000      0.033      0.000
          IF   3193.600      8.217      0.000      9.442      0.000      0.000      0.000      0.000      0.032      0.000
          IF   3195.600      8.272      0.000      9.442      0.000      0.000      0.000      0.000      0.055      0.000
          IF   3209.600      9.100      0.000      9.442      0.000      0.000      0.000      0.000      0.059      0.000
          IF   3211.600      9.221      0.000      9.442      0.000      0.000      0.000      0.000      0.058      0.000
          IF   3215.500      9.442      0.000      9.442      0.000      0.000      0.000      0.000      0.057      0.000
          AS   3627.400      9.438      0.000      9.438      0.000      0.000      0.000      0.000     -0.049      0.000
          IF   3629.600      9.330      0.000      9.438      0.000      0.000      0.000      0.000     -0.003      0.000
          IF   5187.600      4.276      0.000      9.439      0.000      0.000      0.000      0.000     -0.003      0.000
          IF   5191.600      4.307      0.000      9.439      0.000      0.000      0.000      0.000      0.003      0.000
          IF   5371.600      4.838      0.000      9.442      0.000      0.000      0.000      0.000      0.000      0.000
          IF   5375.600      4.252      0.000      9.442      0.000      0.000      0.000      0.000      0.007      0.000
          IF   5467.600      5.552      0.000      9.444      0.000      0.000      0.000      0.000      0.013      0.000
          IF   5487.600      5.743      0.000      9.445      0.000      0.000      0.000      0.000      0.010      0.000
          IF   5491.600      5.787      0.000      9.445      0.000      0.000      0.000      0.000      0.003      0.000
          IF   5553.600      5.924      0.000      9.446      0.000      0.000      0.000      0.000      0.001      0.000
          IF   5569.600      5.861      0.000      9.447      0.000      0.000      0.000      0.000     -0.005      0.000
          IF   5571.600      5.842      0.000      9.447      0.000      0.000      0.000      0.000      0.008      0.000
          IF   5623.600      6.294      0.000      9.467      0.000      0.000      0.000      0.000      0.009      0.000
          IF   5625.600      6.299      0.000      9.468      0.000      0.000      0.000      0.000     -0.002      0.000
          IF   5659.600      6.217      0.000      9.494      0.000      0.000      0.000      0.000     -0.003      0.000
          IF   5663.600      6.190      0.000      9.498      0.000      0.000      0.000      0.000     -0.007      0.000
          IF   5683.600      6.045      0.000      9.522      0.000      0.000      0.000      0.000     -0.014      0.000
          IF   5693.600      5.782      0.000      9.534      0.000      0.000      0.000      0.000     -0.014      0.000
          IF   5701.600      5.799      0.000      9.544      0.000      0.000      0.000      0.000     -0.009      0.000
[...]

                                                                          V24  EL=14     140

                                            1565.00          14.35

                                                                          V24  EL=14     140

                                            1568.20          14.32

                                                                          V24  EL=14     140

                                            1571.50          14.29

                                                                          V24  EL=14     140

                                            1574.80          14.26

                                                                          V24  EL=14     140

                                            1578.10          14.23

                                                                          V24  EL=14     140

                                            1581.40          14.20

                                                                          V24  EL=14     140

                                            1584.60          14.17

                                                                          V24  EL=14     140

                                            1587.90          14.14

                                                                          V24  EL=14     140

                                            1591.20          14.11

                                                                          V24  EL=14     140

                                            1594.50          14.06

                                                                          V24  EL=14     140

                                            1597.80          13.94

                                                                          V24  EL=14     140

                                            1601.00          13.81

                                                                          V24  EL=14     140

                                            1604.30          13.69

                                                                          V24  EL=14     140

                                            1607.60          13.57

                                                                          V24  EL=14     140

                                            1609.45          13.50

                                                                          V24  EL=13     140

                                            1610.90          13.45

                                                                          V24  EL=13     140

                                            1614.20          13.33

                                                                          V24  EL=13     140

                                            1617.50          13.21

                                                                          V24  EL=13     140

                                            1620.70          13.10

                                                                          V24  EL=13     140

                                            1624.00          13.02

                                                                          V24  EL=13     140

                                            1627.30          12.94

                                                                          V24  EL=13     140

                                            1630.60          12.87

                                                                          V24  EL=13     140

                                            1633.90          12.79

                                                                          V24  EL=13     140

                                            1637.10          12.71

                                                                          V24  EL=13     140

                                            1640.40          12.63

                                                                          V24  EL=13     140

                                            1643.70          12.56

                                                                          V24  EL=13     140

                                            1646.35          12.50

                                                                          V24  EL=12     140

                                            1647.00          12.49

                                                                          V24  EL=12     140

                                            1650.30          12.41

                                                                          V24  EL=12     140

                                            1653.50          12.34

                                                                          V24  EL=12     140

                                            1656.80          12.25

                                                                          V24  EL=12     140

                                            1658.82          12.17

                                                                          A19  EL=12      95

                                            1660.10          12.12

                                                                          A19  EL=12      95

                                            1663.40          12.00

                                                                          A19  EL=12      95

                                            1666.70          11.88

                                                                          A19  EL=12      95

                                            1669.90          11.77

                                                                          A19  EL=12      95

                                            1673.20          11.66

                                                                          A19  EL=12      95

                                            1676.50          11.57

                                                                          A19  EL=12      95

                                            1679.27           0.00

                                                                          A19  EL=11      95

                                            1679.80           0.00

                                                                          A19  EL=11      95

                                            1683.10           0.00

                                                                          A19  EL=11      95

                                            1686.30           0.00

                                                                          A19  EL=11      95

                                            1689.60           0.00

                                                                          A19  EL=11      95

                                            1690.24           0.00

                                                                          A19  EL=10      95

                                            1690.40           0.00


                                            1818.60           0.00

                                                                          A19  EL= 9      95

                                            1835.96           0.00

                                                                          A19  EL=10      95

                                            1989.60           0.00

                                                                          A19  EL=10      95

                                            2035.60           0.00

                                                                          A19  EL=10      95

                                            2053.60           0.00

                                                                          A19  EL=10      95

                                            2095.60           0.00

                                                                          A19  EL=10      95

                                            2121.60           0.00

                                                                          A19  EL=10      95

                                            2137.60           0.00

                                                                          A19  EL=10      95

                                            2201.60           0.00

                                                                          A19  EL=10      95

                                            2225.60           0.00

                                                                          A19  EL=10      95

                                            2227.60           0.00

                                                                          A19  EL=10      95

                                            2259.60           0.00

                                                                          A19  EL=10      95

                                            2277.60           0.00

                                                                          A19  EL=10      95

                                            2297.60           0.00

                                                                          A19  EL=10      95

                                            2305.60           0.00

                                                                          A19  EL=10      95

                                            2327.60           0.00

                                                                          A19  EL=10      95

                                            2329.60           0.00

                                                                          A19  EL=10      95

                                            2353.60           0.00

                                                                          A19  EL=10      95

                                            2377.60           0.00

                                                                          A19  EL=10      95

                                            2379.60           0.00

                                                                          A19  EL=10      95

                                            2397.60           0.00

                                                                          A19  EL=10      95

                                            2399.60           0.00

                                                                          A19  EL=10      95

                                            2437.60           0.00

                                                                          A19  EL=10      95

                                            2439.60           0.00

                                                                          A19  EL=10      95

                                            2477.60           0.00

                                                                          A19  EL=10      95

                                            2587.60           0.00

                                                                          A19  EL=10      95

                                            2605.60           0.00

                                                                          A19  EL=10      95

                                            2653.60           0.00

                                                                          A19  EL=10      95

                                            2677.60           0.00

                                                                          A19  EL=10      95

                                            2735.60           0.00

                                                                          A19  EL=10      95

                                            2761.60           0.00

                                                                          A19  EL=10      95

                                            2783.60           0.00

                                                                          A19  EL=10      95

                                            2803.60           0.00

                                                                          A19  EL=10      95

                                            2827.60           0.00

                                                                          A19  EL=10      95

                                            2845.60           0.00

                                                                          A19  EL=10      95

                                            3051.60           0.00

                                                                          A19  EL=10      95

                                            3059.60           0.00

                                                                          A19  EL=10      95

                                            3075.60           0.00

                                                                          A19  EL=10      95

                                            3077.60           0.00

                                                                          A19  EL=10      95

                                            3101.60           0.00

                                                                          A19  EL=10      95

                                            3125.60           0.00

                                                                          A19  EL=10      95

                                            3145.60           0.00

                                                                          A19  EL=10      95

                                            3163.60           0.00

                                                                          A19  EL=10      95

                                            3193.60           0.00

                                                                          A19  EL=10      95

                                            3213.67           0.00

                                                                          A19  EL= 9      95

                                            3215.50           0.00


                                            3627.40           0.00

                                                                          A19  EL= 9      95

                                            3629.60           0.00

                                                                          A19  EL= 9      95

                                            3658.83           0.00

                                                                          A19  EL=10      95

                                            4819.75           0.00

                                                                          A19  EL=11      95

                                            5187.60           0.00

                                                                          A19  EL=11      95

                                            5191.60           0.00

                                                                          A19  EL=11      95

                                            5371.60           0.00

                                                                          A19  EL=11      95

                                            5375.60           0.00

                                                                          A19  EL=11      95

                                            5467.60           0.00

                                                                          A19  EL=11      95

                                            5487.60           0.00

                                                                          A19  EL=11      95

                                            5491.60           0.00

                                                                          A19  EL=11      95

                                            5553.60           0.00

                                                                          A19  EL=11      95

                                            5569.60           0.00

                                                                          A19  EL=11      95

                                            5571.60           0.00

                                                                          A19  EL=11      95

                                            5623.60           0.00

                                                                          A19  EL=11      95

                                            5625.60           0.00

                                                                          A19  EL=11      95

                                            5659.60           0.00

                                                                          A19  EL=11      95

                                            5663.60           0.00

                                                                          A19  EL=11      95

                                            5683.60           0.00

                                                                          A19  EL=11      95

                                            5693.60           0.00

                                                                          A19  EL=11      95

                                            5701.60           0.00

                                                                          A19  EL=11      95

                                            5721.60           0.00

                                                                          A19  EL=11      95

                                            5723.60           0.00

                                                                          A19  EL=11      95

                                            5781.60           0.00

                                                                          A19  EL=11      95

                                            5783.60           0.00

                                                                          A19  EL=11      95

                                            5809.60           0.00

                                                                          A19  EL=11      95

                                            5939.60           0.00

                                                                          A19  EL=11      95

                                            5991.60           0.00

                                                                          A19  EL=11      95

                                            5993.60           0.00

                                                                          A19  EL=11      95

                                            6079.60           0.00

                                                                          A19  EL=11      95

                                            6217.37           0.00

                                                                          A19  EL=10      95

                                            6433.50           0.00



                                                  ZONE TERMINATED AT END OF TRANSECT



                                                  PART 7   POSTSCRIPT NOTES

PS START(374631.5097,4797684.5644)
PS END(373044.2436,4799096.45)