 WAVE HEIGHT COMPUTATIONS FOR FLOOD INSURANCE STUDIES (WHAFIS VERSION 4.0G, 08_2007)
 Executed on: Thu Mar  5 16:11:16 2020
 Input file:  C:\FEMA-TransectAnalysis\LOMR-TransectAnalysis-Wells\3_whafis\whafis4\YK-74.dat                                                 
 Output file: C:\FEMA-TransectAnalysis\LOMR-TransectAnalysis-Wells\3_whafis\whafis4\YK-74.out                                                 



                                                              header                                                                
                                                     THIS IS A 100-YEAR CASE


                                       THE FOLLOWING NON-DEFAULT WIND SPEEDS ARE BEING USED
                                            WINDIF  56.14  WINDOF  56.14  WINDVH  60.00

                                                             PART1 INPUT

          IE      0.000    -25.116      1.000      1.000      8.913     29.306     13.900     56.140      0.008      0.000
          OF      3.300    -25.091      0.000      8.914      0.000      0.000      0.000      0.000      0.008      0.000
          OF      6.600    -25.066      0.000      8.916      0.000      0.000      0.000      0.000      0.008      0.000
          OF      9.800    -25.041      0.000      8.918      0.000      0.000      0.000      0.000      0.008      0.000
          OF     13.100    -25.015      0.000      8.920      0.000      0.000      0.000      0.000      0.008      0.000
          OF     16.400    -24.990      0.000      8.921      0.000      0.000      0.000      0.000      0.008      0.000
          OF     19.700    -24.965      0.000      8.923      0.000      0.000      0.000      0.000      0.008      0.000
          OF     23.000    -24.940      0.000      8.925      0.000      0.000      0.000      0.000      0.008      0.000
          OF     26.200    -24.915      0.000      8.927      0.000      0.000      0.000      0.000      0.008      0.000
          OF     29.500    -24.890      0.000      8.929      0.000      0.000      0.000      0.000      0.008      0.000
          OF     32.800    -24.864      0.000      8.931      0.000      0.000      0.000      0.000      0.008      0.000
          OF     36.100    -24.839      0.000      8.932      0.000      0.000      0.000      0.000      0.008      0.000
          OF     39.400    -24.814      0.000      8.934      0.000      0.000      0.000      0.000      0.008      0.000
          OF     42.700    -24.789      0.000      8.936      0.000      0.000      0.000      0.000      0.008      0.000
          OF     45.900    -24.764      0.000      8.938      0.000      0.000      0.000      0.000      0.008      0.000
          OF     49.200    -24.739      0.000      8.940      0.000      0.000      0.000      0.000      0.008      0.000
          OF     52.500    -24.712      0.000      8.942      0.000      0.000      0.000      0.000      0.009      0.000
          OF     55.800    -24.681      0.000      8.944      0.000      0.000      0.000      0.000      0.009      0.000
          OF     59.100    -24.650      0.000      8.946      0.000      0.000      0.000      0.000      0.009      0.000
          OF     62.300    -24.619      0.000      8.948      0.000      0.000      0.000      0.000      0.009      0.000
          OF     65.600    -24.588      0.000      8.950      0.000      0.000      0.000      0.000      0.009      0.000
          OF     68.900    -24.556      0.000      8.952      0.000      0.000      0.000      0.000      0.009      0.000
          OF     72.200    -24.525      0.000      8.954      0.000      0.000      0.000      0.000      0.009      0.000
          OF     75.500    -24.494      0.000      8.956      0.000      0.000      0.000      0.000      0.009      0.000
          OF     78.700    -24.463      0.000      8.958      0.000      0.000      0.000      0.000      0.009      0.000
          OF     82.000    -24.432      0.000      8.960      0.000      0.000      0.000      0.000      0.009      0.000
          OF     85.300    -24.400      0.000      8.962      0.000      0.000      0.000      0.000      0.009      0.000
          OF     88.600    -24.369      0.000      8.964      0.000      0.000      0.000      0.000      0.009      0.000
          OF     91.900    -24.338      0.000      8.966      0.000      0.000      0.000      0.000      0.011      0.000
          OF     95.100    -24.299      0.000      8.968      0.000      0.000      0.000      0.000      0.013      0.000
          OF     98.400    -24.254      0.000      8.970      0.000      0.000      0.000      0.000      0.014      0.000
          OF    101.700    -24.209      0.000      8.972      0.000      0.000      0.000      0.000      0.014      0.000
          OF    105.000    -24.165      0.000      8.974      0.000      0.000      0.000      0.000      0.014      0.000
          OF    108.300    -24.120      0.000      8.976      0.000      0.000      0.000      0.000      0.014      0.000
          OF    111.500    -24.075      0.000      8.977      0.000      0.000      0.000      0.000      0.014      0.000
          OF    114.800    -24.031      0.000      8.979      0.000      0.000      0.000      0.000      0.014      0.000
          OF    118.100    -23.986      0.000      8.981      0.000      0.000      0.000      0.000      0.014      0.000
          OF    121.400    -23.941      0.000      8.983      0.000      0.000      0.000      0.000      0.014      0.000
          OF    124.700    -23.896      0.000      8.985      0.000      0.000      0.000      0.000      0.014      0.000
          OF    128.000    -23.852      0.000      8.987      0.000      0.000      0.000      0.000      0.014      0.000
          OF    131.200    -23.807      0.000      8.989      0.000      0.000      0.000      0.000      0.014      0.000
          OF    134.500    -23.762      0.000      8.991      0.000      0.000      0.000      0.000      0.014      0.000
          OF    137.800    -23.717      0.000      8.993      0.000      0.000      0.000      0.000      0.014      0.000
          OF    141.100    -23.673      0.000      8.995      0.000      0.000      0.000      0.000      0.014      0.000
          OF    144.400    -23.628      0.000      8.997      0.000      0.000      0.000      0.000      0.014      0.000
          OF    147.600    -23.583      0.000      8.998      0.000      0.000      0.000      0.000      0.014      0.000
          OF    150.900    -23.538      0.000      9.001      0.000      0.000      0.000      0.000      0.014      0.000
          OF    154.200    -23.494      0.000      9.003      0.000      0.000      0.000      0.000      0.014      0.000
          OF    157.500    -23.449      0.000      9.004      0.000      0.000      0.000      0.000      0.014      0.000
          OF    160.800    -23.404      0.000      9.007      0.000      0.000      0.000      0.000      0.014      0.000
          OF    164.000    -23.360      0.000      9.009      0.000      0.000      0.000      0.000      0.014      0.000
          OF    167.300    -23.315      0.000      9.010      0.000      0.000      0.000      0.000      0.014      0.000
          OF    170.600    -23.270      0.000      9.012      0.000      0.000      0.000      0.000      0.014      0.000
          OF    173.900    -23.225      0.000      9.014      0.000      0.000      0.000      0.000      0.014      0.000
          OF    177.200    -23.181      0.000      9.016      0.000      0.000      0.000      0.000      0.014      0.000
          OF    180.400    -23.136      0.000      9.018      0.000      0.000      0.000      0.000      0.014      0.000
          OF    183.700    -23.091      0.000      9.020      0.000      0.000      0.000      0.000      0.014      0.000
          OF    187.000    -23.044      0.000      9.022      0.000      0.000      0.000      0.000      0.014      0.000
          OF    190.300    -22.996      0.000      9.024      0.000      0.000      0.000      0.000      0.014      0.000
          OF    193.600    -22.948      0.000      9.026      0.000      0.000      0.000      0.000      0.015      0.000
          OF    196.800    -22.899      0.000      9.028      0.000      0.000      0.000      0.000      0.015      0.000
          OF    200.100    -22.851      0.000      9.030      0.000      0.000      0.000      0.000      0.014      0.000
          OF    203.400    -22.809      0.000      9.032      0.000      0.000      0.000      0.000      0.012      0.000
          OF    206.700    -22.773      0.000      9.033      0.000      0.000      0.000      0.000      0.011      0.000
          OF    210.000    -22.737      0.000      9.035      0.000      0.000      0.000      0.000      0.011      0.000
          OF    213.300    -22.701      0.000      9.038      0.000      0.000      0.000      0.000      0.011      0.000
          OF    216.500    -22.663      0.000      9.039      0.000      0.000      0.000      0.000      0.013      0.000
          OF    219.800    -22.620      0.000      9.041      0.000      0.000      0.000      0.000      0.013      0.000
          OF    223.100    -22.578      0.000      9.043      0.000      0.000      0.000      0.000      0.013      0.000
          OF    226.400    -22.536      0.000      9.045      0.000      0.000      0.000      0.000      0.013      0.000
          OF    229.700    -22.493      0.000      9.047      0.000      0.000      0.000      0.000      0.013      0.000
          OF    232.900    -22.451      0.000      9.049      0.000      0.000      0.000      0.000      0.013      0.000
          OF    236.200    -22.408      0.000      9.050      0.000      0.000      0.000      0.000      0.013      0.000
          OF    239.500    -22.366      0.000      9.052      0.000      0.000      0.000      0.000      0.013      0.000
          OF    242.800    -22.324      0.000      9.054      0.000      0.000      0.000      0.000      0.013      0.000
          OF    246.100    -22.281      0.000      9.056      0.000      0.000      0.000      0.000      0.013      0.000
          OF    249.300    -22.239      0.000      9.058      0.000      0.000      0.000      0.000      0.013      0.000
          OF    252.600    -22.196      0.000      9.059      0.000      0.000      0.000      0.000      0.013      0.000
          OF    255.900    -22.154      0.000      9.061      0.000      0.000      0.000      0.000      0.013      0.000
          OF    259.200    -22.112      0.000      9.063      0.000      0.000      0.000      0.000      0.013      0.000
          OF    262.500    -22.069      0.000      9.065      0.000      0.000      0.000      0.000      0.013      0.000
          OF    265.700    -22.027      0.000      9.067      0.000      0.000      0.000      0.000      0.013      0.000
          OF    269.000    -21.985      0.000      9.069      0.000      0.000      0.000      0.000      0.013      0.000
          OF    272.300    -21.942      0.000      9.070      0.000      0.000      0.000      0.000      0.013      0.000
          OF    275.600    -21.900      0.000      9.072      0.000      0.000      0.000      0.000      0.013      0.000
          OF    278.900    -21.857      0.000      9.074      0.000      0.000      0.000      0.000      0.013      0.000
          OF    282.200    -21.815      0.000      9.076      0.000      0.000      0.000      0.000      0.013      0.000
          OF    285.400    -21.773      0.000      9.077      0.000      0.000      0.000      0.000      0.013      0.000
          OF    288.700    -21.730      0.000      9.079      0.000      0.000      0.000      0.000      0.013      0.000
          OF    292.000    -21.688      0.000      9.081      0.000      0.000      0.000      0.000      0.013      0.000
          OF    295.300    -21.645      0.000      9.083      0.000      0.000      0.000      0.000      0.013      0.000
          OF    298.600    -21.603      0.000      9.085      0.000      0.000      0.000      0.000      0.013      0.000
          OF    301.800    -21.561      0.000      9.086      0.000      0.000      0.000      0.000      0.013      0.000
          OF    305.100    -21.518      0.000      9.088      0.000      0.000      0.000      0.000      0.013      0.000
          OF    308.400    -21.476      0.000      9.090      0.000      0.000      0.000      0.000      0.013      0.000
          OF    311.700    -21.434      0.000      9.092      0.000      0.000      0.000      0.000      0.013      0.000
          OF    315.000    -21.391      0.000      9.093      0.000      0.000      0.000      0.000      0.013      0.000
          OF    318.200    -21.349      0.000      9.095      0.000      0.000      0.000      0.000      0.013      0.000
          OF    321.500    -21.307      0.000      9.097      0.000      0.000      0.000      0.000      0.012      0.000
          OF    324.800    -21.273      0.000      9.098      0.000      0.000      0.000      0.000      0.010      0.000
          OF    328.100    -21.239      0.000      9.100      0.000      0.000      0.000      0.000      0.010      0.000
          OF    331.400    -21.205      0.000      9.102      0.000      0.000      0.000      0.000      0.010      0.000
          OF    334.600    -21.171      0.000      9.104      0.000      0.000      0.000      0.000      0.010      0.000
          OF    337.900    -21.137      0.000      9.106      0.000      0.000      0.000      0.000      0.010      0.000
          OF    341.200    -21.102      0.000      9.107      0.000      0.000      0.000      0.000      0.011      0.000
          OF    344.500    -21.065      0.000      9.109      0.000      0.000      0.000      0.000      0.012      0.000
          OF    347.800    -21.020      0.000      9.110      0.000      0.000      0.000      0.000      0.014      0.000
          OF    351.000    -20.975      0.000      9.112      0.000      0.000      0.000      0.000      0.014      0.000
          OF    354.300    -20.930      0.000      9.114      0.000      0.000      0.000      0.000      0.014      0.000
          OF    357.600    -20.885      0.000      9.115      0.000      0.000      0.000      0.000      0.014      0.000
          OF    360.900    -20.840      0.000      9.117      0.000      0.000      0.000      0.000      0.014      0.000
          OF    364.200    -20.795      0.000      9.119      0.000      0.000      0.000      0.000      0.014      0.000
          OF    367.500    -20.750      0.000      9.120      0.000      0.000      0.000      0.000      0.014      0.000
          OF    370.700    -20.705      0.000      9.122      0.000      0.000      0.000      0.000      0.014      0.000
          OF    374.000    -20.660      0.000      9.123      0.000      0.000      0.000      0.000      0.014      0.000
          OF    377.300    -20.614      0.000      9.125      0.000      0.000      0.000      0.000      0.014      0.000
          OF    380.600    -20.569      0.000      9.127      0.000      0.000      0.000      0.000      0.014      0.000
          OF    383.900    -20.524      0.000      9.128      0.000      0.000      0.000      0.000      0.014      0.000
          OF    387.100    -20.479      0.000      9.130      0.000      0.000      0.000      0.000      0.014      0.000
          OF    390.400    -20.434      0.000      9.131      0.000      0.000      0.000      0.000      0.014      0.000
          OF    393.700    -20.389      0.000      9.133      0.000      0.000      0.000      0.000      0.014      0.000
          OF    397.000    -20.344      0.000      9.134      0.000      0.000      0.000      0.000      0.014      0.000
          OF    400.300    -20.299      0.000      9.136      0.000      0.000      0.000      0.000      0.014      0.000
          OF    403.500    -20.254      0.000      9.137      0.000      0.000      0.000      0.000      0.014      0.000
          OF    406.800    -20.209      0.000      9.139      0.000      0.000      0.000      0.000      0.014      0.000
          OF    410.100    -20.164      0.000      9.140      0.000      0.000      0.000      0.000      0.014      0.000
          OF    413.400    -20.119      0.000      9.142      0.000      0.000      0.000      0.000      0.014      0.000
          OF    416.700    -20.074      0.000      9.143      0.000      0.000      0.000      0.000      0.014      0.000
          OF    419.900    -20.029      0.000      9.144      0.000      0.000      0.000      0.000      0.014      0.000
          OF    423.200    -19.985      0.000      9.146      0.000      0.000      0.000      0.000      0.014      0.000
          OF    426.500    -19.940      0.000      9.147      0.000      0.000      0.000      0.000      0.014      0.000
          OF    429.800    -19.896      0.000      9.149      0.000      0.000      0.000      0.000      0.014      0.000
          OF    433.100    -19.851      0.000      9.150      0.000      0.000      0.000      0.000      0.014      0.000
          OF    436.400    -19.807      0.000      9.151      0.000      0.000      0.000      0.000      0.014      0.000
          OF    439.600    -19.762      0.000      9.152      0.000      0.000      0.000      0.000      0.014      0.000
          OF    442.900    -19.718      0.000      9.154      0.000      0.000      0.000      0.000      0.014      0.000
          OF    446.200    -19.673      0.000      9.155      0.000      0.000      0.000      0.000      0.014      0.000
          OF    449.500    -19.629      0.000      9.156      0.000      0.000      0.000      0.000      0.014      0.000
          OF    452.800    -19.584      0.000      9.158      0.000      0.000      0.000      0.000      0.014      0.000
          OF    456.000    -19.540      0.000      9.159      0.000      0.000      0.000      0.000      0.014      0.000
          OF    459.300    -19.495      0.000      9.160      0.000      0.000      0.000      0.000      0.014      0.000
          OF    462.600    -19.451      0.000      9.162      0.000      0.000      0.000      0.000      0.014      0.000
          OF    465.900    -19.406      0.000      9.163      0.000      0.000      0.000      0.000      0.014      0.000
          OF    469.200    -19.362      0.000      9.165      0.000      0.000      0.000      0.000      0.014      0.000
          OF    472.400    -19.317      0.000      9.166      0.000      0.000      0.000      0.000      0.014      0.000
          OF    475.700    -19.270      0.000      9.167      0.000      0.000      0.000      0.000      0.015      0.000
          OF    479.000    -19.218      0.000      9.168      0.000      0.000      0.000      0.000      0.016      0.000
          OF    482.300    -19.165      0.000      9.170      0.000      0.000      0.000      0.000      0.016      0.000
          OF    485.600    -19.113      0.000      9.171      0.000      0.000      0.000      0.000      0.016      0.000
          OF    488.800    -19.061      0.000      9.172      0.000      0.000      0.000      0.000      0.016      0.000
          OF    492.100    -19.009      0.000      9.174      0.000      0.000      0.000      0.000      0.016      0.000
          OF    495.400    -18.956      0.000      9.175      0.000      0.000      0.000      0.000      0.016      0.000
          OF    498.700    -18.904      0.000      9.177      0.000      0.000      0.000      0.000      0.016      0.000
          OF    502.000    -18.852      0.000      9.178      0.000      0.000      0.000      0.000      0.016      0.000
          OF    505.200    -18.800      0.000      9.179      0.000      0.000      0.000      0.000      0.018      0.000
          OF    508.500    -18.734      0.000      9.180      0.000      0.000      0.000      0.000      0.022      0.000
          OF    511.800    -18.653      0.000      9.181      0.000      0.000      0.000      0.000      0.024      0.000
          OF    515.100    -18.572      0.000      9.183      0.000      0.000      0.000      0.000      0.024      0.000
          OF    518.400    -18.491      0.000      9.184      0.000      0.000      0.000      0.000      0.024      0.000
          OF    521.700    -18.410      0.000      9.185      0.000      0.000      0.000      0.000      0.025      0.000
          OF    524.900    -18.329      0.000      9.186      0.000      0.000      0.000      0.000      0.025      0.000
          OF    528.200    -18.248      0.000      9.187      0.000      0.000      0.000      0.000      0.024      0.000
          OF    531.500    -18.167      0.000      9.188      0.000      0.000      0.000      0.000      0.025      0.000
          OF    534.800    -18.085      0.000      9.189      0.000      0.000      0.000      0.000      0.025      0.000
          OF    538.100    -18.004      0.000      9.191      0.000      0.000      0.000      0.000      0.025      0.000
          OF    541.300    -17.923      0.000      9.192      0.000      0.000      0.000      0.000      0.025      0.000
          OF    544.600    -17.842      0.000      9.193      0.000      0.000      0.000      0.000      0.024      0.000
          OF    547.900    -17.761      0.000      9.194      0.000      0.000      0.000      0.000      0.024      0.000
          OF    551.200    -17.680      0.000      9.196      0.000      0.000      0.000      0.000      0.024      0.000
          OF    554.500    -17.599      0.000      9.197      0.000      0.000      0.000      0.000      0.025      0.000
          OF    557.700    -17.518      0.000      9.198      0.000      0.000      0.000      0.000      0.025      0.000
          OF    561.000    -17.437      0.000      9.200      0.000      0.000      0.000      0.000      0.024      0.000
          OF    564.300    -17.356      0.000      9.201      0.000      0.000      0.000      0.000      0.024      0.000
          OF    567.600    -17.275      0.000      9.202      0.000      0.000      0.000      0.000      0.024      0.000
          OF    570.900    -17.195      0.000      9.204      0.000      0.000      0.000      0.000      0.025      0.000
          OF    574.100    -17.115      0.000      9.205      0.000      0.000      0.000      0.000      0.025      0.000
          OF    577.400    -17.035      0.000      9.207      0.000      0.000      0.000      0.000      0.024      0.000
          OF    580.700    -16.956      0.000      9.208      0.000      0.000      0.000      0.000      0.024      0.000
          OF    584.000    -16.876      0.000      9.210      0.000      0.000      0.000      0.000      0.024      0.000
          OF    587.300    -16.796      0.000      9.211      0.000      0.000      0.000      0.000      0.025      0.000
          OF    590.500    -16.716      0.000      9.212      0.000      0.000      0.000      0.000      0.025      0.000
          OF    593.800    -16.636      0.000      9.214      0.000      0.000      0.000      0.000      0.024      0.000
          OF    597.100    -16.556      0.000      9.215      0.000      0.000      0.000      0.000      0.024      0.000
          OF    600.400    -16.477      0.000      9.217      0.000      0.000      0.000      0.000      0.024      0.000
          OF    603.700    -16.398      0.000      9.218      0.000      0.000      0.000      0.000      0.022      0.000
          OF    607.000    -16.330      0.000      9.220      0.000      0.000      0.000      0.000      0.021      0.000
          OF    610.200    -16.263      0.000      9.222      0.000      0.000      0.000      0.000      0.021      0.000
          OF    613.500    -16.195      0.000      9.224      0.000      0.000      0.000      0.000      0.021      0.000
          OF    616.800    -16.127      0.000      9.225      0.000      0.000      0.000      0.000      0.021      0.000
          OF    620.100    -16.060      0.000      9.227      0.000      0.000      0.000      0.000      0.021      0.000
          OF    623.400    -15.992      0.000      9.229      0.000      0.000      0.000      0.000      0.021      0.000
          OF    626.600    -15.924      0.000      9.231      0.000      0.000      0.000      0.000      0.021      0.000
          OF    629.900    -15.857      0.000      9.233      0.000      0.000      0.000      0.000      0.021      0.000
          OF    633.200    -15.789      0.000      9.234      0.000      0.000      0.000      0.000      0.021      0.000
          OF    636.500    -15.722      0.000      9.236      0.000      0.000      0.000      0.000      0.021      0.000
          OF    639.800    -15.654      0.000      9.238      0.000      0.000      0.000      0.000      0.021      0.000
          OF    643.000    -15.583      0.000      9.240      0.000      0.000      0.000      0.000      0.023      0.000
          OF    646.300    -15.505      0.000      9.241      0.000      0.000      0.000      0.000      0.024      0.000
          OF    649.600    -15.427      0.000      9.243      0.000      0.000      0.000      0.000      0.024      0.000
          OF    652.900    -15.349      0.000      9.245      0.000      0.000      0.000      0.000      0.024      0.000
          OF    656.200    -15.271      0.000      9.247      0.000      0.000      0.000      0.000      0.024      0.000
          OF    659.400    -15.193      0.000      9.248      0.000      0.000      0.000      0.000      0.024      0.000
          OF    662.700    -15.116      0.000      9.250      0.000      0.000      0.000      0.000      0.023      0.000
          OF    666.000    -15.038      0.000      9.252      0.000      0.000      0.000      0.000      0.024      0.000
          OF    669.300    -14.960      0.000      9.254      0.000      0.000      0.000      0.000      0.024      0.000
          OF    672.600    -14.882      0.000      9.255      0.000      0.000      0.000      0.000      0.024      0.000
          OF    675.900    -14.804      0.000      9.258      0.000      0.000      0.000      0.000      0.024      0.000
          OF    679.100    -14.726      0.000      9.260      0.000      0.000      0.000      0.000      0.024      0.000
          OF    682.400    -14.649      0.000      9.261      0.000      0.000      0.000      0.000      0.023      0.000
          OF    685.700    -14.571      0.000      9.263      0.000      0.000      0.000      0.000      0.024      0.000
          OF    689.000    -14.493      0.000      9.265      0.000      0.000      0.000      0.000      0.024      0.000
          OF    692.300    -14.415      0.000      9.267      0.000      0.000      0.000      0.000      0.024      0.000
          OF    695.500    -14.337      0.000      9.269      0.000      0.000      0.000      0.000      0.024      0.000
          OF    698.800    -14.259      0.000      9.271      0.000      0.000      0.000      0.000      0.024      0.000
          OF    702.100    -14.181      0.000      9.273      0.000      0.000      0.000      0.000      0.023      0.000
          OF    705.400    -14.104      0.000      9.276      0.000      0.000      0.000      0.000      0.023      0.000
          OF    708.700    -14.031      0.000      9.277      0.000      0.000      0.000      0.000      0.022      0.000
          OF    711.900    -13.962      0.000      9.280      0.000      0.000      0.000      0.000      0.021      0.000
          OF    715.200    -13.893      0.000      9.282      0.000      0.000      0.000      0.000      0.021      0.000
          OF    718.500    -13.823      0.000      9.284      0.000      0.000      0.000      0.000      0.021      0.000
          OF    721.800    -13.754      0.000      9.286      0.000      0.000      0.000      0.000      0.021      0.000
          OF    725.100    -13.685      0.000      9.288      0.000      0.000      0.000      0.000      0.021      0.000
          OF    728.300    -13.615      0.000      9.291      0.000      0.000      0.000      0.000      0.021      0.000
          OF    731.600    -13.546      0.000      9.293      0.000      0.000      0.000      0.000      0.021      0.000
          OF    734.900    -13.477      0.000      9.295      0.000      0.000      0.000      0.000      0.021      0.000
          OF    738.200    -13.407      0.000      9.297      0.000      0.000      0.000      0.000      0.021      0.000
          OF    741.500    -13.338      0.000      9.300      0.000      0.000      0.000      0.000      0.021      0.000
          OF    744.700    -13.268      0.000      9.302      0.000      0.000      0.000      0.000      0.021      0.000
          OF    748.000    -13.199      0.000      9.305      0.000      0.000      0.000      0.000      0.021      0.000
          OF    751.300    -13.129      0.000      9.307      0.000      0.000      0.000      0.000      0.021      0.000
          OF    754.600    -13.060      0.000      9.310      0.000      0.000      0.000      0.000      0.021      0.000
          OF    757.900    -12.990      0.000      9.312      0.000      0.000      0.000      0.000      0.021      0.000
          OF    761.200    -12.921      0.000      9.315      0.000      0.000      0.000      0.000      0.021      0.000
          OF    764.400    -12.851      0.000      9.317      0.000      0.000      0.000      0.000      0.021      0.000
          OF    767.700    -12.782      0.000      9.319      0.000      0.000      0.000      0.000      0.021      0.000
          OF    771.000    -12.712      0.000      9.322      0.000      0.000      0.000      0.000      0.021      0.000
          OF    774.300    -12.643      0.000      9.324      0.000      0.000      0.000      0.000      0.021      0.000
          OF    777.600    -12.573      0.000      9.327      0.000      0.000      0.000      0.000      0.021      0.000
          OF    780.800    -12.504      0.000      9.330      0.000      0.000      0.000      0.000      0.021      0.000
          OF    784.100    -12.434      0.000      9.332      0.000      0.000      0.000      0.000      0.021      0.000
          OF    787.400    -12.365      0.000      9.335      0.000      0.000      0.000      0.000      0.021      0.000
          OF    790.700    -12.295      0.000      9.337      0.000      0.000      0.000      0.000      0.021      0.000
          OF    794.000    -12.226      0.000      9.340      0.000      0.000      0.000      0.000      0.021      0.000
          OF    797.200    -12.156      0.000      9.342      0.000      0.000      0.000      0.000      0.021      0.000
          OF    800.500    -12.087      0.000      9.345      0.000      0.000      0.000      0.000      0.021      0.000
          OF    803.800    -12.017      0.000      9.348      0.000      0.000      0.000      0.000      0.021      0.000
          OF    807.100    -11.948      0.000      9.350      0.000      0.000      0.000      0.000      0.021      0.000
          OF    810.400    -11.878      0.000      9.353      0.000      0.000      0.000      0.000      0.021      0.000
          OF    813.600    -11.811      0.000      9.356      0.000      0.000      0.000      0.000      0.021      0.000
          OF    816.900    -11.745      0.000      9.358      0.000      0.000      0.000      0.000      0.020      0.000
          OF    820.200    -11.678      0.000      9.361      0.000      0.000      0.000      0.000      0.020      0.000
          OF    823.500    -11.612      0.000      9.364      0.000      0.000      0.000      0.000      0.020      0.000
          OF    826.800    -11.546      0.000      9.366      0.000      0.000      0.000      0.000      0.020      0.000
          OF    830.100    -11.479      0.000      9.369      0.000      0.000      0.000      0.000      0.021      0.000
          OF    833.300    -11.413      0.000      9.372      0.000      0.000      0.000      0.000      0.021      0.000
          OF    836.600    -11.346      0.000      9.374      0.000      0.000      0.000      0.000      0.020      0.000
          OF    839.900    -11.280      0.000      9.377      0.000      0.000      0.000      0.000      0.020      0.000
          OF    843.200    -11.214      0.000      9.379      0.000      0.000      0.000      0.000      0.020      0.000
          OF    846.500    -11.147      0.000      9.382      0.000      0.000      0.000      0.000      0.021      0.000
          OF    849.700    -11.081      0.000      9.385      0.000      0.000      0.000      0.000      0.020      0.000
          OF    853.000    -11.015      0.000      9.387      0.000      0.000      0.000      0.000      0.020      0.000
          OF    856.300    -10.948      0.000      9.390      0.000      0.000      0.000      0.000      0.020      0.000
          OF    859.600    -10.881      0.000      9.393      0.000      0.000      0.000      0.000      0.022      0.000
          OF    862.900    -10.804      0.000      9.396      0.000      0.000      0.000      0.000      0.024      0.000
          OF    866.100    -10.725      0.000      9.398      0.000      0.000      0.000      0.000      0.024      0.000
          OF    869.400    -10.647      0.000      9.401      0.000      0.000      0.000      0.000      0.024      0.000
          OF    872.700    -10.568      0.000      9.403      0.000      0.000      0.000      0.000      0.024      0.000
          OF    876.000    -10.490      0.000      9.406      0.000      0.000      0.000      0.000      0.024      0.000
          OF    879.300    -10.412      0.000      9.408      0.000      0.000      0.000      0.000      0.024      0.000
          OF    882.500    -10.333      0.000      9.411      0.000      0.000      0.000      0.000      0.024      0.000
          OF    885.800    -10.255      0.000      9.414      0.000      0.000      0.000      0.000      0.024      0.000
          OF    889.100    -10.177      0.000      9.417      0.000      0.000      0.000      0.000      0.024      0.000
          OF    892.400    -10.098      0.000      9.419      0.000      0.000      0.000      0.000      0.024      0.000
          OF    895.700    -10.020      0.000      9.422      0.000      0.000      0.000      0.000      0.024      0.000
          OF    898.900     -9.942      0.000      9.425      0.000      0.000      0.000      0.000      0.024      0.000
          OF    902.200     -9.864      0.000      9.427      0.000      0.000      0.000      0.000      0.024      0.000
          OF    905.500     -9.785      0.000      9.430      0.000      0.000      0.000      0.000      0.024      0.000
          OF    908.800     -9.707      0.000      9.433      0.000      0.000      0.000      0.000      0.023      0.000
          OF    912.100     -9.630      0.000      9.435      0.000      0.000      0.000      0.000      0.023      0.000
          OF    915.400     -9.558      0.000      9.438      0.000      0.000      0.000      0.000      0.022      0.000
          OF    918.600     -9.486      0.000      9.441      0.000      0.000      0.000      0.000      0.022      0.000
          OF    921.900     -9.413      0.000      9.444      0.000      0.000      0.000      0.000      0.022      0.000
          OF    925.200     -9.341      0.000      9.447      0.000      0.000      0.000      0.000      0.022      0.000
          OF    928.500     -9.269      0.000      9.450      0.000      0.000      0.000      0.000      0.022      0.000
          OF    931.800     -9.196      0.000      9.452      0.000      0.000      0.000      0.000      0.022      0.000
          OF    935.000     -9.124      0.000      9.455      0.000      0.000      0.000      0.000      0.022      0.000
          OF    938.300     -9.052      0.000      9.458      0.000      0.000      0.000      0.000      0.022      0.000
          OF    941.600     -8.979      0.000      9.461      0.000      0.000      0.000      0.000      0.022      0.000
          OF    944.900     -8.907      0.000      9.464      0.000      0.000      0.000      0.000      0.022      0.000
          OF    948.200     -8.835      0.000      9.467      0.000      0.000      0.000      0.000      0.022      0.000
          OF    951.400     -8.762      0.000      9.469      0.000      0.000      0.000      0.000      0.022      0.000
          OF    954.700     -8.690      0.000      9.472      0.000      0.000      0.000      0.000      0.022      0.000
          OF    958.000     -8.617      0.000      9.475      0.000      0.000      0.000      0.000      0.022      0.000
          OF    961.300     -8.545      0.000      9.478      0.000      0.000      0.000      0.000      0.021      0.000
          OF    964.600     -8.476      0.000      9.481      0.000      0.000      0.000      0.000      0.021      0.000
          OF    967.800     -8.408      0.000      9.484      0.000      0.000      0.000      0.000      0.021      0.000
          OF    971.100     -8.339      0.000      9.487      0.000      0.000      0.000      0.000      0.021      0.000
          OF    974.400     -8.271      0.000      9.490      0.000      0.000      0.000      0.000      0.021      0.000
          OF    977.700     -8.202      0.000      9.492      0.000      0.000      0.000      0.000      0.021      0.000
          OF    981.000     -8.134      0.000      9.495      0.000      0.000      0.000      0.000      0.021      0.000
          OF    984.200     -8.066      0.000      9.498      0.000      0.000      0.000      0.000      0.021      0.000
          OF    987.500     -7.997      0.000      9.501      0.000      0.000      0.000      0.000      0.021      0.000
          OF    990.800     -7.929      0.000      9.504      0.000      0.000      0.000      0.000      0.021      0.000
          OF    994.100     -7.860      0.000      9.507      0.000      0.000      0.000      0.000      0.021      0.000
          OF    997.400     -7.792      0.000      9.509      0.000      0.000      0.000      0.000      0.021      0.000
          OF   1000.700     -7.723      0.000      9.512      0.000      0.000      0.000      0.000      0.021      0.000
          OF   1003.900     -7.655      0.000      9.515      0.000      0.000      0.000      0.000      0.021      0.000
          OF   1007.200     -7.587      0.000      9.518      0.000      0.000      0.000      0.000      0.021      0.000
          OF   1010.500     -7.515      0.000      9.521      0.000      0.000      0.000      0.000      0.024      0.000
          OF   1013.800     -7.427      0.000      9.523      0.000      0.000      0.000      0.000      0.026      0.000
          OF   1017.100     -7.340      0.000      9.526      0.000      0.000      0.000      0.000      0.027      0.000
          OF   1020.300     -7.253      0.000      9.529      0.000      0.000      0.000      0.000      0.027      0.000
          OF   1023.600     -7.166      0.000      9.531      0.000      0.000      0.000      0.000      0.026      0.000
          OF   1026.900     -7.079      0.000      9.534      0.000      0.000      0.000      0.000      0.026      0.000
          OF   1030.200     -6.992      0.000      9.537      0.000      0.000      0.000      0.000      0.026      0.000
          OF   1033.500     -6.905      0.000      9.540      0.000      0.000      0.000      0.000      0.027      0.000
          OF   1036.700     -6.818      0.000      9.542      0.000      0.000      0.000      0.000      0.027      0.000
          OF   1040.000     -6.731      0.000      9.545      0.000      0.000      0.000      0.000      0.026      0.000
          OF   1043.300     -6.644      0.000      9.548      0.000      0.000      0.000      0.000      0.026      0.000
          OF   1046.600     -6.556      0.000      9.551      0.000      0.000      0.000      0.000      0.026      0.000
          OF   1049.900     -6.469      0.000      9.554      0.000      0.000      0.000      0.000      0.027      0.000
          OF   1053.100     -6.382      0.000      9.557      0.000      0.000      0.000      0.000      0.027      0.000
          OF   1056.400     -6.295      0.000      9.560      0.000      0.000      0.000      0.000      0.026      0.000
          OF   1059.700     -6.208      0.000      9.562      0.000      0.000      0.000      0.000      0.026      0.000
          OF   1063.000     -6.121      0.000      9.565      0.000      0.000      0.000      0.000      0.026      0.000
          OF   1066.300     -6.034      0.000      9.568      0.000      0.000      0.000      0.000      0.026      0.000
          OF   1069.600     -5.947      0.000      9.571      0.000      0.000      0.000      0.000      0.027      0.000
          OF   1072.800     -5.860      0.000      9.574      0.000      0.000      0.000      0.000      0.027      0.000
          OF   1076.100     -5.773      0.000      9.577      0.000      0.000      0.000      0.000      0.025      0.000
          OF   1079.400     -5.694      0.000      9.580      0.000      0.000      0.000      0.000      0.022      0.000
          OF   1082.700     -5.628      0.000      9.584      0.000      0.000      0.000      0.000      0.020      0.000
          OF   1086.000     -5.562      0.000      9.587      0.000      0.000      0.000      0.000      0.020      0.000
          OF   1089.200     -5.495      0.000      9.590      0.000      0.000      0.000      0.000      0.020      0.000
          OF   1092.500     -5.429      0.000      9.594      0.000      0.000      0.000      0.000      0.020      0.000
          OF   1095.800     -5.363      0.000      9.597      0.000      0.000      0.000      0.000      0.020      0.000
          OF   1099.100     -5.296      0.000      9.600      0.000      0.000      0.000      0.000      0.020      0.000
          OF   1102.400     -5.230      0.000      9.603      0.000      0.000      0.000      0.000      0.020      0.000
          OF   1105.600     -5.164      0.000      9.606      0.000      0.000      0.000      0.000      0.020      0.000
          OF   1108.900     -5.097      0.000      9.610      0.000      0.000      0.000      0.000      0.016      0.000
          OF   1112.200     -5.057      0.000      9.613      0.000      0.000      0.000      0.000      0.008      0.000
          OF   1115.500     -5.043      0.000      9.617      0.000      0.000      0.000      0.000      0.004      0.000
          OF   1118.800     -5.029      0.000      9.621      0.000      0.000      0.000      0.000      0.004      0.000
          OF   1122.000     -5.015      0.000      9.624      0.000      0.000      0.000      0.000      0.004      0.000
          OF   1125.300     -5.001      0.000      9.628      0.000      0.000      0.000      0.000      0.004      0.000
          OF   1128.600     -4.987      0.000      9.631      0.000      0.000      0.000      0.000      0.004      0.000
          OF   1131.900     -4.973      0.000      9.634      0.000      0.000      0.000      0.000      0.004      0.000
          OF   1135.200     -4.959      0.000      9.637      0.000      0.000      0.000      0.000      0.004      0.000
          OF   1138.400     -4.945      0.000      9.640      0.000      0.000      0.000      0.000      0.004      0.000
          OF   1141.700     -4.931      0.000      9.644      0.000      0.000      0.000      0.000      0.004      0.000
          OF   1145.000     -4.917      0.000      9.647      0.000      0.000      0.000      0.000      0.004      0.000
          OF   1148.300     -4.903      0.000      9.649      0.000      0.000      0.000      0.000      0.004      0.000
          OF   1151.600     -4.890      0.000      9.652      0.000      0.000      0.000      0.000      0.004      0.000
          OF   1154.900     -4.876      0.000      9.655      0.000      0.000      0.000      0.000      0.004      0.000
          OF   1158.100     -4.861      0.000      9.658      0.000      0.000      0.000      0.000      0.004      0.000
          OF   1161.400     -4.848      0.000      9.660      0.000      0.000      0.000      0.000      0.004      0.000
          OF   1164.700     -4.834      0.000      9.663      0.000      0.000      0.000      0.000      0.004      0.000
          OF   1168.000     -4.820      0.000      9.665      0.000      0.000      0.000      0.000      0.004      0.000
          OF   1171.300     -4.806      0.000      9.667      0.000      0.000      0.000      0.000      0.004      0.000
          OF   1174.500     -4.792      0.000      9.670      0.000      0.000      0.000      0.000      0.004      0.000
          OF   1177.800     -4.778      0.000      9.672      0.000      0.000      0.000      0.000      0.004      0.000
          OF   1181.100     -4.764      0.000      9.675      0.000      0.000      0.000      0.000      0.004      0.000
          OF   1184.400     -4.750      0.000      9.677      0.000      0.000      0.000      0.000      0.004      0.000
          OF   1187.700     -4.736      0.000      9.679      0.000      0.000      0.000      0.000      0.004      0.000
          OF   1190.900     -4.722      0.000      9.681      0.000      0.000      0.000      0.000      0.004      0.000
          OF   1194.200     -4.708      0.000      9.683      0.000      0.000      0.000      0.000      0.004      0.000
          OF   1197.500     -4.694      0.000      9.685      0.000      0.000      0.000      0.000      0.004      0.000
          OF   1200.800     -4.680      0.000      9.687      0.000      0.000      0.000      0.000      0.004      0.000
          OF   1204.100     -4.666      0.000      9.689      0.000      0.000      0.000      0.000      0.004      0.000
          OF   1207.300     -4.652      0.000      9.691      0.000      0.000      0.000      0.000      0.004      0.000
          OF   1210.600     -4.638      0.000      9.693      0.000      0.000      0.000      0.000      0.004      0.000
          OF   1213.900     -4.627      0.000      9.695      0.000      0.000      0.000      0.000      0.009      0.000
          OF   1217.200     -4.579      0.000      9.696      0.000      0.000      0.000      0.000      0.015      0.000
          OF   1220.500     -4.525      0.000      9.698      0.000      0.000      0.000      0.000      0.016      0.000
          OF   1223.800     -4.471      0.000      9.699      0.000      0.000      0.000      0.000      0.017      0.000
          OF   1227.000     -4.417      0.000      9.701      0.000      0.000      0.000      0.000      0.017      0.000
          OF   1230.300     -4.362      0.000      9.703      0.000      0.000      0.000      0.000      0.017      0.000
          OF   1233.600     -4.307      0.000      9.704      0.000      0.000      0.000      0.000      0.017      0.000
          OF   1236.900     -4.253      0.000      9.705      0.000      0.000      0.000      0.000      0.017      0.000
          OF   1240.200     -4.198      0.000      9.707      0.000      0.000      0.000      0.000      0.017      0.000
          OF   1243.400     -4.143      0.000      9.708      0.000      0.000      0.000      0.000      0.017      0.000
          OF   1246.700     -4.089      0.000      9.710      0.000      0.000      0.000      0.000      0.017      0.000
          OF   1250.000     -4.034      0.000      9.712      0.000      0.000      0.000      0.000      0.017      0.000
          OF   1253.300     -3.979      0.000      9.713      0.000      0.000      0.000      0.000      0.017      0.000
          OF   1256.600     -3.924      0.000      9.715      0.000      0.000      0.000      0.000      0.017      0.000
          OF   1259.800     -3.870      0.000      9.716      0.000      0.000      0.000      0.000      0.017      0.000
          OF   1263.100     -3.815      0.000      9.718      0.000      0.000      0.000      0.000      0.017      0.000
          OF   1266.400     -3.761      0.000      9.719      0.000      0.000      0.000      0.000      0.017      0.000
          OF   1269.700     -3.706      0.000      9.721      0.000      0.000      0.000      0.000      0.017      0.000
          OF   1273.000     -3.651      0.000      9.723      0.000      0.000      0.000      0.000      0.017      0.000
          OF   1276.200     -3.597      0.000      9.724      0.000      0.000      0.000      0.000      0.017      0.000
          OF   1279.500     -3.542      0.000      9.726      0.000      0.000      0.000      0.000      0.017      0.000
          OF   1282.800     -3.487      0.000      9.727      0.000      0.000      0.000      0.000      0.017      0.000
          OF   1286.100     -3.433      0.000      9.729      0.000      0.000      0.000      0.000      0.017      0.000
          OF   1289.400     -3.378      0.000      9.731      0.000      0.000      0.000      0.000      0.017      0.000
          OF   1292.600     -3.323      0.000      9.732      0.000      0.000      0.000      0.000      0.017      0.000
          OF   1295.900     -3.269      0.000      9.734      0.000      0.000      0.000      0.000      0.017      0.000
          OF   1299.200     -3.214      0.000      9.736      0.000      0.000      0.000      0.000      0.017      0.000
          OF   1302.500     -3.159      0.000      9.737      0.000      0.000      0.000      0.000      0.017      0.000
          OF   1305.800     -3.105      0.000      9.739      0.000      0.000      0.000      0.000      0.017      0.000
          OF   1309.100     -3.050      0.000      9.741      0.000      0.000      0.000      0.000      0.017      0.000
          OF   1312.300     -2.995      0.000      9.743      0.000      0.000      0.000      0.000      0.017      0.000
          OF   1315.600     -2.941      0.000      9.744      0.000      0.000      0.000      0.000      0.017      0.000
          OF   1318.900     -2.886      0.000      9.746      0.000      0.000      0.000      0.000      0.017      0.000
          OF   1322.200     -2.830      0.000      9.748      0.000      0.000      0.000      0.000      0.017      0.000
          OF   1325.500     -2.774      0.000      9.749      0.000      0.000      0.000      0.000      0.017      0.000
          OF   1328.700     -2.719      0.000      9.751      0.000      0.000      0.000      0.000      0.017      0.000
          OF   1332.000     -2.663      0.000      9.753      0.000      0.000      0.000      0.000      0.017      0.000
          OF   1335.300     -2.607      0.000      9.755      0.000      0.000      0.000      0.000      0.017      0.000
          OF   1338.600     -2.552      0.000      9.756      0.000      0.000      0.000      0.000      0.017      0.000
          OF   1341.900     -2.496      0.000      9.758      0.000      0.000      0.000      0.000      0.017      0.000
          OF   1345.100     -2.440      0.000      9.760      0.000      0.000      0.000      0.000      0.017      0.000
          OF   1348.400     -2.384      0.000      9.762      0.000      0.000      0.000      0.000      0.017      0.000
          OF   1351.700     -2.329      0.000      9.764      0.000      0.000      0.000      0.000      0.017      0.000
          OF   1355.000     -2.273      0.000      9.765      0.000      0.000      0.000      0.000      0.017      0.000
          OF   1358.300     -2.217      0.000      9.767      0.000      0.000      0.000      0.000      0.017      0.000
          OF   1361.500     -2.162      0.000      9.769      0.000      0.000      0.000      0.000      0.017      0.000
          OF   1364.800     -2.106      0.000      9.771      0.000      0.000      0.000      0.000      0.017      0.000
          OF   1368.100     -2.050      0.000      9.773      0.000      0.000      0.000      0.000      0.017      0.000
          OF   1371.400     -1.994      0.000      9.774      0.000      0.000      0.000      0.000      0.017      0.000
          OF   1374.700     -1.939      0.000      9.776      0.000      0.000      0.000      0.000      0.017      0.000
          OF   1377.900     -1.883      0.000      9.778      0.000      0.000      0.000      0.000      0.017      0.000
          OF   1381.200     -1.827      0.000      9.780      0.000      0.000      0.000      0.000      0.017      0.000
          OF   1384.500     -1.771      0.000      9.782      0.000      0.000      0.000      0.000      0.017      0.000
          OF   1387.800     -1.714      0.000      9.784      0.000      0.000      0.000      0.000      0.017      0.000
          OF   1391.100     -1.657      0.000      9.786      0.000      0.000      0.000      0.000      0.017      0.000
          OF   1394.400     -1.601      0.000      9.788      0.000      0.000      0.000      0.000      0.017      0.000
          OF   1397.600     -1.544      0.000      9.790      0.000      0.000      0.000      0.000      0.017      0.000
          OF   1400.900     -1.488      0.000      9.792      0.000      0.000      0.000      0.000      0.017      0.000
          OF   1404.200     -1.433      0.000      9.793      0.000      0.000      0.000      0.000      0.015      0.000
          OF   1407.500     -1.386      0.000      9.796      0.000      0.000      0.000      0.000      0.014      0.000
          OF   1410.800     -1.338      0.000      9.797      0.000      0.000      0.000      0.000      0.014      0.000
          OF   1414.000     -1.291      0.000      9.800      0.000      0.000      0.000      0.000      0.014      0.000
          OF   1417.300     -1.244      0.000      9.802      0.000      0.000      0.000      0.000      0.014      0.000
          OF   1420.600     -1.197      0.000      9.804      0.000      0.000      0.000      0.000      0.014      0.000
          OF   1423.900     -1.149      0.000      9.806      0.000      0.000      0.000      0.000      0.014      0.000
          OF   1427.200     -1.102      0.000      9.808      0.000      0.000      0.000      0.000      0.014      0.000
          OF   1430.400     -1.055      0.000      9.810      0.000      0.000      0.000      0.000      0.015      0.000
          OF   1433.700     -1.008      0.000      9.812      0.000      0.000      0.000      0.000      0.014      0.000
          OF   1437.000     -0.960      0.000      9.814      0.000      0.000      0.000      0.000      0.014      0.000
          OF   1440.300     -0.913      0.000      9.816      0.000      0.000      0.000      0.000      0.014      0.000
          OF   1443.600     -0.865      0.000      9.818      0.000      0.000      0.000      0.000      0.015      0.000
          OF   1446.800     -0.818      0.000      9.820      0.000      0.000      0.000      0.000      0.015      0.000
          OF   1450.100     -0.771      0.000      9.822      0.000      0.000      0.000      0.000      0.014      0.000
          OF   1453.400     -0.723      0.000      9.824      0.000      0.000      0.000      0.000      0.014      0.000
          OF   1456.700     -0.675      0.000      9.825      0.000      0.000      0.000      0.000      0.014      0.000
          OF   1460.000     -0.628      0.000      9.828      0.000      0.000      0.000      0.000      0.014      0.000
          OF   1463.300     -0.581      0.000      9.829      0.000      0.000      0.000      0.000      0.015      0.000
          OF   1466.500     -0.533      0.000      9.832      0.000      0.000      0.000      0.000      0.015      0.000
          OF   1469.800     -0.486      0.000      9.833      0.000      0.000      0.000      0.000      0.014      0.000
          OF   1473.100     -0.438      0.000      9.835      0.000      0.000      0.000      0.000      0.014      0.000
          OF   1476.400     -0.391      0.000      9.837      0.000      0.000      0.000      0.000      0.014      0.000
          OF   1479.700     -0.343      0.000      9.839      0.000      0.000      0.000      0.000      0.015      0.000
          OF   1482.900     -0.296      0.000      9.841      0.000      0.000      0.000      0.000      0.016      0.000
          OF   1486.200     -0.241      0.000      9.843      0.000      0.000      0.000      0.000      0.017      0.000
          OF   1489.500     -0.182      0.000      9.845      0.000      0.000      0.000      0.000      0.018      0.000
          OF   1492.800     -0.124      0.000      9.847      0.000      0.000      0.000      0.000      0.018      0.000
          OF   1496.100     -0.066      0.000      9.849      0.000      0.000      0.000      0.000      0.028      0.000
          IF   1499.300      0.058      0.000      9.850      0.000      0.000      0.000      0.000      0.059      0.000
          IF   1502.600      0.316      0.000      9.849      0.000      0.000      0.000      0.000      0.036      0.000
          IF   1505.900      0.293      0.000      9.853      0.000      0.000      0.000      0.000     -0.007      0.000
          IF   1509.200      0.271      0.000      9.856      0.000      0.000      0.000      0.000      0.002      0.000
          IF   1512.500      0.310      0.000      9.858      0.000      0.000      0.000      0.000      0.015      0.000
          IF   1515.700      0.366      0.000      9.861      0.000      0.000      0.000      0.000      0.019      0.000
          IF   1519.000      0.434      0.000      9.862      0.000      0.000      0.000      0.000      0.020      0.000
          IF   1522.300      0.497      0.000      9.865      0.000      0.000      0.000      0.000      0.017      0.000
          IF   1525.600      0.548      0.000      9.867      0.000      0.000      0.000      0.000      0.015      0.000
          IF   1528.900      0.598      0.000      9.869      0.000      0.000      0.000      0.000      0.015      0.000
          IF   1532.100      0.643      0.000      9.871      0.000      0.000      0.000      0.000      0.013      0.000
          IF   1535.400      0.683      0.000      9.873      0.000      0.000      0.000      0.000      0.012      0.000
          IF   1538.700      0.723      0.000      9.876      0.000      0.000      0.000      0.000      0.012      0.000
          IF   1542.000      0.763      0.000      9.878      0.000      0.000      0.000      0.000      0.013      0.000
          IF   1545.300      0.808      0.000      9.880      0.000      0.000      0.000      0.000      0.015      0.000
          IF   1548.600      0.860      0.000      9.882      0.000      0.000      0.000      0.000      0.016      0.000
          IF   1551.800      0.911      0.000      9.884      0.000      0.000      0.000      0.000      0.016      0.000
          IF   1555.100      0.963      0.000      9.886      0.000      0.000      0.000      0.000      0.016      0.000
          IF   1558.400      1.015      0.000      9.889      0.000      0.000      0.000      0.000      0.001      0.000
          IF   1561.700      0.969      0.000      9.892      0.000      0.000      0.000      0.000     -0.015      0.000
          IF   1565.000      0.919      0.000      9.895      0.000      0.000      0.000      0.000      0.022      0.000
          IF   1568.200      1.115      0.000      9.895      0.000      0.000      0.000      0.000      0.060      0.000
          IF   1571.500      1.313      0.000      9.895      0.000      0.000      0.000      0.000      0.038      0.000
          IF   1574.800      1.368      0.000      9.897      0.000      0.000      0.000      0.000      0.017      0.000
          IF   1578.100      1.424      0.000      9.899      0.000      0.000      0.000      0.000      0.017      0.000
          IF   1581.400      1.480      0.000      9.902      0.000      0.000      0.000      0.000      0.017      0.000
          IF   1584.600      1.536      0.000      9.904      0.000      0.000      0.000      0.000      0.015      0.000
          IF   1587.900      1.580      0.000      9.906      0.000      0.000      0.000      0.000      0.013      0.000
          IF   1591.200      1.623      0.000      9.909      0.000      0.000      0.000      0.000      0.013      0.000
          IF   1594.500      1.666      0.000      9.911      0.000      0.000      0.000      0.000      0.016      0.000
          IF   1597.800      1.728      0.000      9.913      0.000      0.000      0.000      0.000      0.019      0.000
          IF   1601.000      1.789      0.000      9.915      0.000      0.000      0.000      0.000      0.018      0.000
          IF   1604.300      1.843      0.000      9.918      0.000      0.000      0.000      0.000      0.016      0.000
          IF   1607.600      1.896      0.000      9.920      0.000      0.000      0.000      0.000      0.020      0.000
          IF   1610.900      1.977      0.000      9.922      0.000      0.000      0.000      0.000      0.025      0.000
          IF   1614.200      2.060      0.000      9.924      0.000      0.000      0.000      0.000      0.024      0.000
          IF   1617.500      2.137      0.000      9.926      0.000      0.000      0.000      0.000      0.016      0.000
          IF   1620.700      2.168      0.000      9.929      0.000      0.000      0.000      0.000      0.009      0.000
          IF   1624.000      2.198      0.000      9.932      0.000      0.000      0.000      0.000      0.014      0.000
          IF   1627.300      2.262      0.000      9.934      0.000      0.000      0.000      0.000      0.019      0.000
          IF   1630.600      2.325      0.000      9.936      0.000      0.000      0.000      0.000      0.020      0.000
          IF   1633.900      2.395      0.000      9.938      0.000      0.000      0.000      0.000      0.023      0.000
          IF   1637.100      2.473      0.000      9.940      0.000      0.000      0.000      0.000      0.020      0.000
          IF   1640.400      2.522      0.000      9.943      0.000      0.000      0.000      0.000      0.014      0.000
          IF   1643.700      2.563      0.000      9.946      0.000      0.000      0.000      0.000      0.016      0.000
          IF   1647.000      2.626      0.000      9.948      0.000      0.000      0.000      0.000      0.019      0.000
          IF   1650.300      2.690      0.000      9.950      0.000      0.000      0.000      0.000      0.011      0.000
          IF   1653.500      2.701      0.000      9.953      0.000      0.000      0.000      0.000     -0.001      0.000
          IF   1656.800      2.683      0.000      9.956      0.000      0.000      0.000      0.000      0.027      0.000
          IF   1660.100      2.876      0.000      9.957      0.000      0.000      0.000      0.000      0.039      0.000
          IF   1663.400      2.941      0.000      9.959      0.000      0.000      0.000      0.000      0.019      0.000
          IF   1666.700      2.999      0.000      9.961      0.000      0.000      0.000      0.000      0.018      0.000
          IF   1669.900      3.057      0.000      9.964      0.000      0.000      0.000      0.000      0.019      0.000
          IF   1673.200      3.124      0.000      9.966      0.000      0.000      0.000      0.000      0.022      0.000
          IF   1676.500      3.201      0.000      9.969      0.000      0.000      0.000      0.000      0.024      0.000
          IF   1679.800      3.283      0.000      9.971      0.000      0.000      0.000      0.000      0.026      0.000
          IF   1683.100      3.371      0.000      9.974      0.000      0.000      0.000      0.000      0.027      0.000
          IF   1686.300      3.460      0.000      9.976      0.000      0.000      0.000      0.000      0.011      0.000
          IF   1689.600      3.443      0.000      9.980      0.000      0.000      0.000      0.000      0.006      0.000
          IF   1692.900      3.502      0.000      9.983      0.000      0.000      0.000      0.000      0.033      0.000
          IF   1696.200      3.660      0.000      9.984      0.000      0.000      0.000      0.000      0.036      0.000
          IF   1699.500      3.737      0.000      9.987      0.000      0.000      0.000      0.000      0.025      0.000
          IF   1702.800      3.823      0.000      9.989      0.000      0.000      0.000      0.000      0.028      0.000
          IF   1706.000      3.918      0.000      9.992      0.000      0.000      0.000      0.000      0.029      0.000
          IF   1709.300      4.010      0.000      9.995      0.000      0.000      0.000      0.000      0.025      0.000
          IF   1712.600      4.081      0.000      9.998      0.000      0.000      0.000      0.000      0.021      0.000
          IF   1715.900      4.148      0.000     10.002      0.000      0.000      0.000      0.000      0.019      0.000
          IF   1719.200      4.205      0.000     10.005      0.000      0.000      0.000      0.000      0.027      0.000
          IF   1722.400      4.321      0.000     10.009      0.000      0.000      0.000      0.000      0.036      0.000
          IF   1725.700      4.437      0.000     10.011      0.000      0.000      0.000      0.000      0.035      0.000
          IF   1729.000      4.554      0.000     10.015      0.000      0.000      0.000      0.000      0.036      0.000
          IF   1732.300      4.672      0.000     10.018      0.000      0.000      0.000      0.000      0.036      0.000
          IF   1735.600      4.789      0.000     10.022      0.000      0.000      0.000      0.000      0.036      0.000
          IF   1738.800      4.907      0.000     10.026      0.000      0.000      0.000      0.000      0.036      0.000
          IF   1742.100      5.026      0.000     10.030      0.000      0.000      0.000      0.000      0.044      0.000
          IF   1745.400      5.198      0.000     10.033      0.000      0.000      0.000      0.000      0.043      0.000
          IF   1748.700      5.312      0.000     10.039      0.000      0.000      0.000      0.000      0.034      0.000
          IF   1752.000      5.426      0.000     10.044      0.000      0.000      0.000      0.000      0.036      0.000
          IF   1755.200      5.549      0.000     10.050      0.000      0.000      0.000      0.000      0.039      0.000
          IF   1758.500      5.681      0.000     10.056      0.000      0.000      0.000      0.000      0.040      0.000
          IF   1761.800      5.812      0.000     10.062      0.000      0.000      0.000      0.000      0.055      0.000
          IF   1765.100      6.044      0.000     10.066      0.000      0.000      0.000      0.000      0.057      0.000
          IF   1768.400      6.186      0.000     10.075      0.000      0.000      0.000      0.000      0.019      0.000
          IF   1771.600      6.165      0.000     10.086      0.000      0.000      0.000      0.000      0.039      0.000
          IF   1774.900      6.438      0.000     10.091      0.000      0.000      0.000      0.000      0.082      0.000
          IF   1778.200      6.703      0.000     10.098      0.000      0.000      0.000      0.000      0.065      0.000
          IF   1781.500      6.868      0.000     10.111      0.000      0.000      0.000      0.000      0.050      0.000
          IF   1784.800      7.033      0.000     10.124      0.000      0.000      0.000      0.000      0.048      0.000
          IF   1788.100      7.184      0.000     10.138      0.000      0.000      0.000      0.000      0.044      0.000
          IF   1791.300      7.321      0.000     10.153      0.000      0.000      0.000      0.000      0.042      0.000
          IF   1794.600      7.458      0.000     10.167      0.000      0.000      0.000      0.000      0.042      0.000
          IF   1797.900      7.596      0.000     10.182      0.000      0.000      0.000      0.000      0.043      0.000
          IF   1801.200      7.740      0.000     10.198      0.000      0.000      0.000      0.000      0.043      0.000
          IF   1804.500      7.883      0.000     10.212      0.000      0.000      0.000      0.000      0.044      0.000
          IF   1807.700      8.027      0.000     10.231      0.000      0.000      0.000      0.000      0.044      0.000
          IF   1811.000      8.170      0.000     10.250      0.000      0.000      0.000      0.000      0.039      0.000
          IF   1814.300      8.282      0.000     10.268      0.000      0.000      0.000      0.000      0.034      0.000
          IF   1817.600      8.393      0.000     10.284      0.000      0.000      0.000      0.000      0.034      0.000
          IF   1820.900      8.505      0.000     10.299      0.000      0.000      0.000      0.000      0.034      0.000
          IF   1824.100      8.616      0.000     10.313      0.000      0.000      0.000      0.000      0.036      0.000
          IF   1827.400      8.740      0.000     10.325      0.000      0.000      0.000      0.000      0.038      0.000
          IF   1830.700      8.864      0.000     10.337      0.000      0.000      0.000      0.000      0.038      0.000
          IF   1834.000      8.989      0.000     10.348      0.000      0.000      0.000      0.000      0.047      0.000
          IF   1843.000      9.449      0.000     10.348      0.000      0.000      0.000      0.000      0.041      0.000
          IF   1848.500      9.580      0.000     10.348      0.000      0.000      0.000      0.000      0.064      0.000
          IF   1857.000     10.348      0.000     10.348      0.000      0.000      0.000      0.000      0.090      0.000
          AS   2071.600      9.727      0.000      9.727      0.000      0.000      0.000      0.000     -0.146      0.000
          IF   2073.500      9.449      0.000      9.727      0.000      0.000      0.000      0.000     -0.057      0.000
          IF   2080.500      9.219      0.000      9.727      0.000      0.000      0.000      0.000      0.019      0.000
          IF   2088.500      9.727      0.000      9.727      0.000      0.000      0.000      0.000      0.063      0.000
          AS   2127.200      9.427      0.000      9.427      0.000      0.000      0.000      0.000     -0.063      0.000
          IF   2142.500      8.465      0.000      9.427      0.000      0.000      0.000      0.000     -0.034      0.000
          IF   2150.500      8.629      0.000      9.427      0.000      0.000      0.000      0.000      0.014      0.000
          IF   2164.000      8.760      0.000      9.427      0.000      0.000      0.000      0.000      0.010      0.000
          IF   2169.500      8.825      0.000      9.427      0.000      0.000      0.000      0.000      0.043      0.000
          IF   2179.600      9.427      0.000      9.427      0.000      0.000      0.000      0.000      0.060      0.000
          AS   2213.400      9.427      0.000      9.427      0.000      0.000      0.000      0.000     -0.112      0.000
          IF   2234.000      7.119      0.000      9.427      0.000      0.000      0.000      0.000     -0.084      0.000
          IF   2240.000      7.185      0.000      9.427      0.000      0.000      0.000      0.000      0.044      0.000
          IF   2258.000      8.169      0.000      9.427      0.000      0.000      0.000      0.000      0.053      0.000
          IF   2265.500      8.530      0.000      9.427      0.000      0.000      0.000      0.000      0.033      0.000
          IF   2276.000      8.760      0.000      9.427      0.000      0.000      0.000      0.000      0.042      0.000
          IF   2286.800      9.427      0.000      9.427      0.000      0.000      0.000      0.000      0.062      0.000
          AS   2295.700      9.427      0.000      9.427      0.000      0.000      0.000      0.000     -0.096      0.000
          IF   2296.500      9.350      0.000      9.427      0.000      0.000      0.000      0.000     -0.053      0.000
          IF   2301.500      9.121      0.000      9.427      0.000      0.000      0.000      0.000      0.009      0.000
          IF   2305.200      9.427      0.000      9.427      0.000      0.000      0.000      0.000      0.083      0.000
          AS   2308.700      9.427      0.000      9.427      0.000      0.000      0.000      0.000     -0.070      0.000
          IF   2314.000      9.055      0.000      9.427      0.000      0.000      0.000      0.000     -0.068      0.000
          IF   2320.500      8.629      0.000      9.427      0.000      0.000      0.000      0.000     -0.078      0.000
          IF   2336.000      7.349      0.000      9.427      0.000      0.000      0.000      0.000     -0.021      0.000
          IF   2342.500      8.169      0.000      9.427      0.000      0.000      0.000      0.000      0.104      0.000
          IF   2355.900      9.427      0.000      9.427      0.000      0.000      0.000      0.000      0.094      0.000
          AS   2635.100      9.424      0.000      9.424      0.000      0.000      0.000      0.000     -0.058      0.000
          IF   2773.500      1.378      0.000      9.424      0.000      0.000      0.000      0.000     -0.046      0.000
          OF   3052.000     -9.656      0.000      9.427      0.000      0.000      0.000      0.000     -0.040      0.000
          OF   3053.000     -9.724      0.000      9.427      0.000      0.000      0.000      0.000     -0.015      0.000
          OF   3122.000    -10.722      0.000      9.427      0.000      0.000      0.000      0.000     -0.014      0.000
          OF   3123.000    -10.698      0.000      9.427      0.000      0.000      0.000      0.000      0.024      0.000
          OF   3146.000    -10.141      0.000      9.427      0.000      0.000      0.000      0.000      0.024      0.000
          OF   3147.000    -10.116      0.000      9.427      0.000      0.000      0.000      0.000      0.025      0.000
          OF   3170.000     -9.529      0.000      9.427      0.000      0.000      0.000      0.000      0.025      0.000
          OF   3171.000     -9.503      0.000      9.427      0.000      0.000      0.000      0.000      0.026      0.000
          OF   3195.000     -8.878      0.000      9.427      0.000      0.000      0.000      0.000      0.026      0.000
          OF   3207.000     -8.566      0.000      9.427      0.000      0.000      0.000      0.000      0.046      0.000
          OF   3219.000     -7.765      0.000      9.427      0.000      0.000      0.000      0.000      0.077      0.000
          OF   3243.000     -5.806      0.000      9.427      0.000      0.000      0.000      0.000      0.082      0.000
          OF   3249.000     -5.292      0.000      9.427      0.000      0.000      0.000      0.000      0.086      0.000
          OF   3287.000     -2.042      0.000      9.427      0.000      0.000      0.000      0.000      0.086      0.000
          OF   3288.000     -1.956      0.000      9.427      0.000      0.000      0.000      0.000     -0.042      0.000
          OF   3523.000    -12.014      0.000      9.431      0.000      0.000      0.000      0.000     -0.043      0.000
          OF   3524.000    -12.014      0.000      9.431      0.000      0.000      0.000      0.000      0.002      0.000
          OF   3535.000    -11.984      0.000      9.431      0.000      0.000      0.000      0.000      0.003      0.000
          OF   3536.000    -11.981      0.000      9.431      0.000      0.000      0.000      0.000      0.003      0.000
          OF   3547.000    -11.949      0.000      9.431      0.000      0.000      0.000      0.000      0.003      0.000
          OF   3548.000    -11.946      0.000      9.431      0.000      0.000      0.000      0.000      0.003      0.000
          OF   3559.000    -11.914      0.000      9.431      0.000      0.000      0.000      0.000      0.003      0.000
          OF   3560.000    -11.911      0.000      9.431      0.000      0.000      0.000      0.000      0.003      0.000
          OF   3571.000    -11.879      0.000      9.431      0.000      0.000      0.000      0.000      0.003      0.000
          OF   3572.000    -11.876      0.000      9.431      0.000      0.000      0.000      0.000      0.003      0.000
          OF   3583.000    -11.844      0.000      9.430      0.000      0.000      0.000      0.000      0.003      0.000
          OF   3584.000    -11.841      0.000      9.430      0.000      0.000      0.000      0.000      0.003      0.000
          OF   3595.000    -11.809      0.000      9.430      0.000      0.000      0.000      0.000      0.003      0.000
          OF   3596.000    -11.806      0.000      9.430      0.000      0.000      0.000      0.000      0.026      0.000
          OF   3607.000    -11.491      0.000      9.430      0.000      0.000      0.000      0.000      0.036      0.000
          OF   3608.000    -11.376      0.000      9.430      0.000      0.000      0.000      0.000      0.116      0.000
          OF   3631.000     -8.717      0.000      9.430      0.000      0.000      0.000      0.000      0.116      0.000
          OF   3632.000     -8.602      0.000      9.430      0.000      0.000      0.000      0.000      0.090      0.000
          OF   3655.000     -6.556      0.000      9.430      0.000      0.000      0.000      0.000      0.089      0.000
          OF   3656.000     -6.470      0.000      9.430      0.000      0.000      0.000      0.000      0.041      0.000
          IF   3848.000      1.411      0.000      9.431      0.000      0.000      0.000      0.000      0.043      0.000
          IF   3863.000      2.461      0.000      9.432      0.000      0.000      0.000      0.000      0.079      0.000
          IF   3900.000      5.512      0.000      9.433      0.000      0.000      0.000      0.000      0.089      0.000
          IF   3916.000      7.152      0.000      9.433      0.000      0.000      0.000      0.000      0.082      0.000
          IF   3924.500      7.513      0.000      9.433      0.000      0.000      0.000      0.000      0.057      0.000
          IF   3934.500      8.202      0.000      9.433      0.000      0.000      0.000      0.000      0.094      0.000
          IF   3943.000      9.252      0.000      9.433      0.000      0.000      0.000      0.000      0.088      0.000
          IF   3948.500      9.433      0.000      9.433      0.000      0.000      0.000      0.000      0.033      0.000
          AS   4534.200      9.460      0.000      9.460      0.000      0.000      0.000      0.000     -0.147      0.000
          IF   4553.500      6.627      0.000      9.460      0.000      0.000      0.000      0.000     -0.097      0.000
          IF   4576.500      5.348      0.000      9.460      0.000      0.000      0.000      0.000     -0.045      0.000
          IF   4584.500      5.216      0.000      9.460      0.000      0.000      0.000      0.000     -0.009      0.000
          IF   4605.000      5.085      0.000      9.460      0.000      0.000      0.000      0.000     -0.008      0.000
          IF   4614.000      4.987      0.000      9.460      0.000      0.000      0.000      0.000     -0.011      0.000
          IF   4656.500      4.528      0.000      9.460      0.000      0.000      0.000      0.000      0.000      0.000
          IF   4686.500      4.987      0.000      9.460      0.000      0.000      0.000      0.000      0.011      0.000
[...]

                                                                          V24  EL=13     140

                                            1729.00           0.00

                                                                          V24  EL=13     140

                                            1732.30           0.00

                                                                          V24  EL=13     140

                                            1735.60           0.00

                                                                          V24  EL=13     140

                                            1738.80           0.00

                                                                          V24  EL=13     140

                                            1742.10           0.00

                                                                          V24  EL=13     140

                                            1745.40           0.00

                                                                          V24  EL=13     140

                                            1748.70           0.00

                                                                          V24  EL=13     140

                                            1752.00           0.00

                                                                          V24  EL=13     140

                                            1754.64           0.00

                                                                          V24  EL=12     140

                                            1755.20           0.00

                                                                          V24  EL=12     140

                                            1758.50           0.00

                                                                          V24  EL=12     140

                                            1761.80           0.00

                                                                          V24  EL=12     140

                                            1765.10           0.00

                                                                          V24  EL=12     140

                                            1768.40           0.00

                                                                          V24  EL=12     140

                                            1771.60           0.00

                                                                          V24  EL=12     140

                                            1772.00           0.00

                                                                          A18  EL=12      90

                                            1774.90           0.00

                                                                          A18  EL=12      90

                                            1778.20           0.00

                                                                          A18  EL=12      90

                                            1781.50           0.00

                                                                          A18  EL=12      90

                                            1784.80           0.00

                                                                          A18  EL=12      90

                                            1788.10           0.00

                                                                          A18  EL=12      90

                                            1791.30           0.00

                                                                          A18  EL=12      90

                                            1794.60           0.00

                                                                          A18  EL=12      90

                                            1797.90           0.00

                                                                          A18  EL=12      90

                                            1801.20           0.00

                                                                          A18  EL=12      90

                                            1803.26           0.00

                                                                          A18  EL=11      90

                                            1804.50           0.00

                                                                          A18  EL=11      90

                                            1807.70           0.00

                                                                          A18  EL=11      90

                                            1811.00           0.00

                                                                          A18  EL=11      90

                                            1814.30           0.00

                                                                          A18  EL=11      90

                                            1817.60           0.00

                                                                          A18  EL=11      90

                                            1820.90           0.00

                                                                          A18  EL=11      90

                                            1824.10           0.00

                                                                          A18  EL=11      90

                                            1827.40           0.00

                                                                          A18  EL=11      90

                                            1830.70           0.00

                                                                          A18  EL=11      90

                                            1834.00           0.00

                                                                          A18  EL=11      90

                                            1853.99           0.00

                                                                          A18  EL=10      90

                                            1857.00           0.00


                                            2071.60           0.00

                                                                          A18  EL=10      90

                                            2088.50           0.00


                                            2127.20           0.00

                                                                          A18  EL= 9      90

                                            2146.49           0.00

                                                                          A18  EL=10      90

                                            2173.72           0.00

                                                                          A18  EL= 9      90

                                            2179.60           0.00


                                            2213.40           0.00

                                                                          A18  EL= 9      90

                                            2233.03           0.00

                                                                          A18  EL=10      90

                                            2281.93           0.00

                                                                          A18  EL= 9      90

                                            2286.80           0.00


                                            2295.70           0.00

                                                                          A18  EL= 9      90

                                            2305.20           0.00


                                            2308.70           0.00

                                                                          A18  EL= 9      90

                                            2328.37           0.00

                                                                          A18  EL=10      90

                                            2346.90           0.00

                                                                          A18  EL= 9      90

                                            2355.90           0.00


                                            2635.10           0.00

                                                                          A18  EL= 9      90

                                            2671.25           0.00

                                                                          A18  EL=10      90

                                            2773.50           0.00

                                                                          A18  EL=10      90

                                            3052.00           0.00

                                                                          A18  EL=10      90

                                            3288.00           0.00

                                                                          A18  EL=10      90

                                            3523.00           0.00

                                                                          A18  EL=10      90

                                            3572.00           0.00

                                                                          A18  EL=10      90

                                            3583.00           0.00

                                                                          A18  EL=10      90

                                            3656.00           0.00

                                                                          A18  EL=10      90

                                            3732.60           0.00

                                                                          A18  EL=11      90

                                            3848.00           0.00

                                                                          A18  EL=11      90

                                            3863.00           0.00

                                                                          A18  EL=11      90

                                            3900.00           0.00

                                                                          A18  EL=11      90

                                            3902.56           0.00

                                                                          A18  EL=10      90

                                            3944.78           0.00

                                                                          A18  EL= 9      90

                                            3948.50           0.00


                                            4534.20           0.00

                                                                          A18  EL= 9      90

                                            4544.72           0.00

                                                                          A18  EL=10      90

                                            4705.50           0.00

                                                                          A18  EL=10      90

                                            4730.50           0.00

                                                                          A18  EL=10      90

                                            4738.00           0.00

                                                                          A18  EL=10      90

                                            4765.00           0.00

                                                                          A18  EL=10      90

                                            4773.00           0.00

                                                                          A18  EL=10      90

                                            4795.50           0.00

                                                                          A18  EL=10      90

                                            4816.50           0.00

                                                                          A18  EL=10      90

                                            4822.00           0.00

                                                                          A18  EL=10      90

                                            4856.00           0.00

                                                                          A18  EL=10      90

                                            4872.50           0.00

                                                                          A18  EL=10      90

                                            4892.00           0.00

                                                                          A18  EL=10      90

                                            4899.50           0.00

                                                                          A18  EL=10      90

                                            4918.50           0.00

                                                                          A18  EL=10      90

                                            5274.00           0.00

                                                                          A18  EL=10      90

                                            5365.50           0.00

                                                                          A18  EL=10      90

                                            5372.00           0.00

                                                                          A18  EL=10      90

                                            5403.00           0.00

                                                                          A18  EL=10      90

                                            5426.50           0.00

                                                                          A18  EL=10      90

                                            5457.50           0.00

                                                                          A18  EL=10      90

                                            5486.00           0.00

                                                                          A18  EL=10      90

                                            5567.50           0.00

                                                                          A18  EL=10      90

                                            5585.00           0.00

                                                                          A18  EL=10      90

                                            5586.21           0.00

                                                                          A18  EL=11      90

                                            5617.00           0.00

                                                                          A18  EL=11      90

                                            5647.00           0.00

                                                                          A18  EL=11      90

                                            5690.00           0.00

                                                                          A18  EL=11      90

                                            5698.50           0.00

                                                                          A18  EL=11      90

                                            5793.00           0.00

                                                                          A18  EL=11      90

                                            5798.50           0.00

                                                                          A18  EL=11      90

                                            5850.00           0.00

                                                                          A18  EL=11      90

                                            5894.50           0.00

                                                                          A18  EL=11      90

                                            5940.00           0.00

                                                                          A18  EL=11      90

                                            5950.50           0.00

                                                                          A18  EL=11      90

                                            5979.00           0.00

                                                                          A18  EL=11      90

                                            5985.00           0.00

                                                                          A18  EL=11      90

                                            6011.50           0.00

                                                                          A18  EL=11      90

                                            6044.00           0.00

                                                                          A18  EL=11      90

                                            6049.50           0.00

                                                                          A18  EL=11      90

                                            6078.50           0.00

                                                                          A18  EL=11      90

                                            6108.00           0.00

                                                                          A18  EL=11      90

                                            6158.50           0.00

                                                                          A18  EL=11      90

                                            6197.50           0.00

                                                                          A18  EL=11      90

                                            6214.00           0.00

                                                                          A18  EL=11      90

                                            6239.50           0.00

                                                                          A18  EL=11      90

                                            6262.50           0.00

                                                                          A18  EL=11      90

                                            6277.00           0.00

                                                                          A18  EL=11      90

                                            6310.00           0.00

                                                                          A18  EL=11      90

                                            6348.00           0.00

                                                                          A18  EL=11      90

                                            6382.50           0.00

                                                                          A18  EL=11      90

                                            6391.50           0.00

                                                                          A18  EL=11      90

                                            6412.00           0.00

                                                                          A18  EL=11      90

                                            6464.42           0.00

                                                                          A18  EL=10      90

                                            6516.86           0.00

                                                                          A18  EL= 9      90

                                            6517.00           0.00



                                                  ZONE TERMINATED AT END OF TRANSECT



                                                  PART 7   POSTSCRIPT NOTES

PS START(374140.5339,4796901.8705)
PS END(372453.2837,4797977.6298)