 WAVE HEIGHT COMPUTATIONS FOR FLOOD INSURANCE STUDIES (WHAFIS VERSION 4.0G, 08_2007)
 Executed on: Thu Feb 20 14:57:36 2020
 Input file:  C:\FEMA-TransectAnalysis\LOMR-TransectAnalysis-Harpswell\3_whafis\whafis4\CM-133-1.dat                                          
 Output file: C:\FEMA-TransectAnalysis\LOMR-TransectAnalysis-Harpswell\3_whafis\whafis4\CM-133-1.out                                          
                                                              header                                                                
                                                     THIS IS A 100-YEAR CASE
                                       THE FOLLOWING NON-DEFAULT WIND SPEEDS ARE BEING USED
                                            WINDIF  56.14  WINDOF  56.14  WINDVH  60.00
                                                             PART1 INPUT
          IE      0.000     -8.241      1.000      1.000      8.906      2.811      2.702     56.140      0.009      0.000
          OF      1.000     -8.232      0.000      8.906      0.000      0.000      0.000      0.000      0.009      0.000
          OF      2.000     -8.224      0.000      8.906      0.000      0.000      0.000      0.000      0.009      0.000
          OF      3.000     -8.215      0.000      8.906      0.000      0.000      0.000      0.000      0.009      0.000
          OF      4.000     -8.207      0.000      8.906      0.000      0.000      0.000      0.000      0.009      0.000
          OF      5.000     -8.198      0.000      8.906      0.000      0.000      0.000      0.000      0.009      0.000
          OF      6.000     -8.190      0.000      8.906      0.000      0.000      0.000      0.000      0.009      0.000
          OF      7.000     -8.182      0.000      8.906      0.000      0.000      0.000      0.000      0.009      0.000
          OF      8.000     -8.173      0.000      8.906      0.000      0.000      0.000      0.000      0.009      0.000
          OF      9.000     -8.165      0.000      8.906      0.000      0.000      0.000      0.000      0.009      0.000
          OF     10.000     -8.156      0.000      8.906      0.000      0.000      0.000      0.000      0.009      0.000
          OF     11.000     -8.148      0.000      8.906      0.000      0.000      0.000      0.000      0.009      0.000
          OF     12.000     -8.139      0.000      8.906      0.000      0.000      0.000      0.000      0.008      0.000
          OF     13.000     -8.132      0.000      8.906      0.000      0.000      0.000      0.000      0.007      0.000
          OF     14.000     -8.125      0.000      8.906      0.000      0.000      0.000      0.000      0.006      0.000
          OF     15.000     -8.119      0.000      8.906      0.000      0.000      0.000      0.000      0.006      0.000
          OF     16.000     -8.113      0.000      8.906      0.000      0.000      0.000      0.000      0.006      0.000
          OF     17.000     -8.107      0.000      8.906      0.000      0.000      0.000      0.000      0.006      0.000
          OF     18.000     -8.101      0.000      8.906      0.000      0.000      0.000      0.000      0.006      0.000
          OF     19.000     -8.095      0.000      8.906      0.000      0.000      0.000      0.000      0.006      0.000
          OF     20.000     -8.089      0.000      8.906      0.000      0.000      0.000      0.000      0.006      0.000
          OF     21.000     -8.083      0.000      8.906      0.000      0.000      0.000      0.000      0.006      0.000
          OF     22.000     -8.077      0.000      8.906      0.000      0.000      0.000      0.000      0.006      0.000
          OF     23.000     -8.071      0.000      8.906      0.000      0.000      0.000      0.000      0.006      0.000
          OF     24.000     -8.065      0.000      8.906      0.000      0.000      0.000      0.000      0.006      0.000
          OF     25.000     -8.059      0.000      8.906      0.000      0.000      0.000      0.000      0.006      0.000
          OF     26.000     -8.053      0.000      8.906      0.000      0.000      0.000      0.000      0.006      0.000
          OF     27.000     -8.047      0.000      8.906      0.000      0.000      0.000      0.000      0.006      0.000
          OF     28.000     -8.040      0.000      8.906      0.000      0.000      0.000      0.000      0.006      0.000
          OF     29.000     -8.035      0.000      8.906      0.000      0.000      0.000      0.000      0.005      0.000
          OF     30.000     -8.030      0.000      8.906      0.000      0.000      0.000      0.000      0.005      0.000
          OF     31.000     -8.025      0.000      8.906      0.000      0.000      0.000      0.000      0.005      0.000
          OF     32.000     -8.021      0.000      8.906      0.000      0.000      0.000      0.000      0.005      0.000
          OF     33.000     -8.016      0.000      8.906      0.000      0.000      0.000      0.000      0.008      0.000
          OF     34.000     -8.005      0.000      8.906      0.000      0.000      0.000      0.000      0.010      0.000
          OF     35.000     -7.995      0.000      8.906      0.000      0.000      0.000      0.000      0.010      0.000
          OF     36.000     -7.985      0.000      8.906      0.000      0.000      0.000      0.000      0.010      0.000
          OF     37.000     -7.975      0.000      8.906      0.000      0.000      0.000      0.000      0.010      0.000
          OF     38.000     -7.964      0.000      8.906      0.000      0.000      0.000      0.000      0.010      0.000
          OF     39.000     -7.954      0.000      8.906      0.000      0.000      0.000      0.000      0.010      0.000
          OF     40.000     -7.944      0.000      8.906      0.000      0.000      0.000      0.000      0.010      0.000
          OF     41.000     -7.934      0.000      8.906      0.000      0.000      0.000      0.000      0.010      0.000
          OF     42.000     -7.924      0.000      8.906      0.000      0.000      0.000      0.000      0.010      0.000
          OF     43.000     -7.913      0.000      8.906      0.000      0.000      0.000      0.000      0.010      0.000
          OF     44.000     -7.903      0.000      8.906      0.000      0.000      0.000      0.000      0.010      0.000
          OF     45.000     -7.893      0.000      8.906      0.000      0.000      0.000      0.000      0.010      0.000
          OF     46.000     -7.883      0.000      8.906      0.000      0.000      0.000      0.000      0.010      0.000
          OF     47.000     -7.872      0.000      8.906      0.000      0.000      0.000      0.000      0.010      0.000
          OF     48.000     -7.862      0.000      8.906      0.000      0.000      0.000      0.000      0.010      0.000
          OF     49.000     -7.852      0.000      8.906      0.000      0.000      0.000      0.000      0.010      0.000
          OF     50.000     -7.842      0.000      8.906      0.000      0.000      0.000      0.000      0.010      0.000
          OF     51.000     -7.832      0.000      8.906      0.000      0.000      0.000      0.000      0.010      0.000
          OF     52.000     -7.821      0.000      8.906      0.000      0.000      0.000      0.000      0.010      0.000
          OF     53.000     -7.811      0.000      8.906      0.000      0.000      0.000      0.000      0.010      0.000
          OF     54.000     -7.801      0.000      8.906      0.000      0.000      0.000      0.000      0.010      0.000
          OF     55.000     -7.791      0.000      8.906      0.000      0.000      0.000      0.000      0.010      0.000
          OF     56.000     -7.780      0.000      8.906      0.000      0.000      0.000      0.000      0.010      0.000
          OF     57.000     -7.770      0.000      8.906      0.000      0.000      0.000      0.000      0.010      0.000
          OF     58.000     -7.760      0.000      8.906      0.000      0.000      0.000      0.000      0.010      0.000
          OF     59.000     -7.750      0.000      8.906      0.000      0.000      0.000      0.000      0.010      0.000
          OF     60.000     -7.740      0.000      8.906      0.000      0.000      0.000      0.000      0.010      0.000
          OF     61.000     -7.729      0.000      8.906      0.000      0.000      0.000      0.000      0.010      0.000
          OF     62.000     -7.719      0.000      8.906      0.000      0.000      0.000      0.000      0.010      0.000
          OF     63.000     -7.709      0.000      8.906      0.000      0.000      0.000      0.000      0.010      0.000
          OF     64.000     -7.699      0.000      8.906      0.000      0.000      0.000      0.000      0.010      0.000
          OF     65.000     -7.688      0.000      8.906      0.000      0.000      0.000      0.000      0.010      0.000
          OF     66.000     -7.678      0.000      8.906      0.000      0.000      0.000      0.000      0.010      0.000
          OF     67.000     -7.668      0.000      8.906      0.000      0.000      0.000      0.000      0.010      0.000
          OF     68.000     -7.658      0.000      8.906      0.000      0.000      0.000      0.000      0.010      0.000
          OF     69.000     -7.647      0.000      8.906      0.000      0.000      0.000      0.000      0.010      0.000
          OF     70.000     -7.637      0.000      8.906      0.000      0.000      0.000      0.000      0.010      0.000
          OF     71.000     -7.627      0.000      8.906      0.000      0.000      0.000      0.000      0.010      0.000
          OF     72.000     -7.617      0.000      8.906      0.000      0.000      0.000      0.000      0.010      0.000
          OF     73.000     -7.606      0.000      8.906      0.000      0.000      0.000      0.000      0.010      0.000
          OF     74.000     -7.596      0.000      8.906      0.000      0.000      0.000      0.000      0.010      0.000
          OF     75.000     -7.586      0.000      8.906      0.000      0.000      0.000      0.000      0.010      0.000
          OF     76.000     -7.576      0.000      8.906      0.000      0.000      0.000      0.000      0.010      0.000
          OF     77.000     -7.565      0.000      8.906      0.000      0.000      0.000      0.000      0.010      0.000
          OF     78.000     -7.555      0.000      8.906      0.000      0.000      0.000      0.000      0.010      0.000
          OF     79.000     -7.545      0.000      8.906      0.000      0.000      0.000      0.000      0.010      0.000
          OF     80.000     -7.535      0.000      8.906      0.000      0.000      0.000      0.000      0.010      0.000
          OF     81.000     -7.525      0.000      8.906      0.000      0.000      0.000      0.000      0.010      0.000
          OF     82.000     -7.514      0.000      8.906      0.000      0.000      0.000      0.000      0.010      0.000
          OF     83.000     -7.504      0.000      8.906      0.000      0.000      0.000      0.000      0.010      0.000
          OF     84.000     -7.494      0.000      8.906      0.000      0.000      0.000      0.000      0.010      0.000
          OF     85.000     -7.484      0.000      8.906      0.000      0.000      0.000      0.000      0.010      0.000
          OF     86.000     -7.473      0.000      8.906      0.000      0.000      0.000      0.000      0.010      0.000
          OF     87.000     -7.463      0.000      8.906      0.000      0.000      0.000      0.000      0.010      0.000
          OF     88.000     -7.453      0.000      8.906      0.000      0.000      0.000      0.000      0.010      0.000
          OF     89.000     -7.443      0.000      8.906      0.000      0.000      0.000      0.000      0.010      0.000
          OF     90.000     -7.432      0.000      8.906      0.000      0.000      0.000      0.000      0.010      0.000
          OF     91.000     -7.422      0.000      8.906      0.000      0.000      0.000      0.000      0.010      0.000
          OF     92.000     -7.412      0.000      8.906      0.000      0.000      0.000      0.000      0.010      0.000
          OF     93.000     -7.402      0.000      8.906      0.000      0.000      0.000      0.000      0.010      0.000
          OF     94.000     -7.392      0.000      8.906      0.000      0.000      0.000      0.000      0.010      0.000
          OF     95.000     -7.381      0.000      8.906      0.000      0.000      0.000      0.000      0.010      0.000
          OF     96.000     -7.371      0.000      8.906      0.000      0.000      0.000      0.000      0.010      0.000
          OF     97.000     -7.361      0.000      8.906      0.000      0.000      0.000      0.000      0.010      0.000
          OF     98.000     -7.351      0.000      8.906      0.000      0.000      0.000      0.000      0.010      0.000
          OF     99.000     -7.340      0.000      8.906      0.000      0.000      0.000      0.000      0.010      0.000
          OF    100.000     -7.330      0.000      8.906      0.000      0.000      0.000      0.000      0.010      0.000
          OF    101.000     -7.320      0.000      8.906      0.000      0.000      0.000      0.000      0.010      0.000
          OF    102.000     -7.310      0.000      8.906      0.000      0.000      0.000      0.000      0.010      0.000
          OF    103.000     -7.299      0.000      8.906      0.000      0.000      0.000      0.000      0.010      0.000
          OF    104.000     -7.289      0.000      8.906      0.000      0.000      0.000      0.000      0.010      0.000
          OF    105.000     -7.279      0.000      8.906      0.000      0.000      0.000      0.000      0.010      0.000
          OF    106.000     -7.269      0.000      8.906      0.000      0.000      0.000      0.000      0.010      0.000
          OF    107.000     -7.259      0.000      8.906      0.000      0.000      0.000      0.000      0.010      0.000
          OF    108.000     -7.248      0.000      8.906      0.000      0.000      0.000      0.000      0.010      0.000
          OF    109.000     -7.238      0.000      8.906      0.000      0.000      0.000      0.000      0.010      0.000
          OF    110.000     -7.228      0.000      8.906      0.000      0.000      0.000      0.000      0.010      0.000
          OF    111.000     -7.218      0.000      8.906      0.000      0.000      0.000      0.000      0.010      0.000
          OF    112.000     -7.207      0.000      8.906      0.000      0.000      0.000      0.000      0.010      0.000
          OF    113.000     -7.197      0.000      8.906      0.000      0.000      0.000      0.000      0.010      0.000
          OF    114.000     -7.187      0.000      8.906      0.000      0.000      0.000      0.000      0.010      0.000
          OF    115.000     -7.177      0.000      8.906      0.000      0.000      0.000      0.000      0.010      0.000
          OF    116.000     -7.167      0.000      8.906      0.000      0.000      0.000      0.000      0.010      0.000
          OF    117.000     -7.156      0.000      8.906      0.000      0.000      0.000      0.000      0.010      0.000
          OF    118.000     -7.146      0.000      8.906      0.000      0.000      0.000      0.000      0.010      0.000
          OF    119.000     -7.136      0.000      8.906      0.000      0.000      0.000      0.000      0.010      0.000
          OF    120.000     -7.126      0.000      8.906      0.000      0.000      0.000      0.000      0.010      0.000
          OF    121.000     -7.115      0.000      8.906      0.000      0.000      0.000      0.000      0.010      0.000
          OF    122.000     -7.105      0.000      8.906      0.000      0.000      0.000      0.000      0.010      0.000
          OF    123.000     -7.095      0.000      8.906      0.000      0.000      0.000      0.000      0.010      0.000
          OF    124.000     -7.085      0.000      8.906      0.000      0.000      0.000      0.000      0.010      0.000
          OF    125.000     -7.074      0.000      8.906      0.000      0.000      0.000      0.000      0.010      0.000
          OF    126.000     -7.064      0.000      8.906      0.000      0.000      0.000      0.000      0.010      0.000
          OF    127.000     -7.054      0.000      8.906      0.000      0.000      0.000      0.000      0.010      0.000
          OF    128.000     -7.044      0.000      8.906      0.000      0.000      0.000      0.000      0.010      0.000
          OF    129.000     -7.033      0.000      8.906      0.000      0.000      0.000      0.000      0.010      0.000
          OF    130.000     -7.023      0.000      8.906      0.000      0.000      0.000      0.000      0.010      0.000
          OF    131.000     -7.013      0.000      8.906      0.000      0.000      0.000      0.000      0.010      0.000
          OF    132.000     -7.003      0.000      8.906      0.000      0.000      0.000      0.000      0.010      0.000
          OF    133.000     -6.992      0.000      8.906      0.000      0.000      0.000      0.000      0.010      0.000
          OF    134.000     -6.982      0.000      8.906      0.000      0.000      0.000      0.000      0.010      0.000
          OF    135.000     -6.972      0.000      8.906      0.000      0.000      0.000      0.000      0.010      0.000
          OF    136.000     -6.962      0.000      8.906      0.000      0.000      0.000      0.000      0.010      0.000
          OF    137.000     -6.952      0.000      8.906      0.000      0.000      0.000      0.000      0.010      0.000
          OF    138.000     -6.941      0.000      8.906      0.000      0.000      0.000      0.000      0.010      0.000
          OF    139.000     -6.931      0.000      8.906      0.000      0.000      0.000      0.000      0.010      0.000
          OF    140.000     -6.921      0.000      8.906      0.000      0.000      0.000      0.000      0.010      0.000
          OF    141.000     -6.911      0.000      8.906      0.000      0.000      0.000      0.000      0.010      0.000
          OF    142.000     -6.900      0.000      8.906      0.000      0.000      0.000      0.000      0.010      0.000
          OF    143.000     -6.890      0.000      8.906      0.000      0.000      0.000      0.000      0.010      0.000
          OF    144.000     -6.880      0.000      8.906      0.000      0.000      0.000      0.000      0.011      0.000
          OF    145.000     -6.869      0.000      8.906      0.000      0.000      0.000      0.000      0.011      0.000
          OF    146.000     -6.858      0.000      8.906      0.000      0.000      0.000      0.000      0.011      0.000
          OF    147.000     -6.847      0.000      8.906      0.000      0.000      0.000      0.000      0.011      0.000
          OF    148.000     -6.836      0.000      8.906      0.000      0.000      0.000      0.000      0.011      0.000
          OF    149.000     -6.826      0.000      8.906      0.000      0.000      0.000      0.000      0.011      0.000
          OF    150.000     -6.815      0.000      8.906      0.000      0.000      0.000      0.000      0.011      0.000
          OF    151.000     -6.804      0.000      8.906      0.000      0.000      0.000      0.000      0.011      0.000
          OF    152.000     -6.793      0.000      8.906      0.000      0.000      0.000      0.000      0.011      0.000
          OF    153.000     -6.782      0.000      8.906      0.000      0.000      0.000      0.000      0.011      0.000
          OF    154.000     -6.771      0.000      8.906      0.000      0.000      0.000      0.000      0.011      0.000
          OF    155.000     -6.760      0.000      8.906      0.000      0.000      0.000      0.000      0.011      0.000
          OF    156.000     -6.749      0.000      8.906      0.000      0.000      0.000      0.000      0.011      0.000
          OF    157.000     -6.738      0.000      8.906      0.000      0.000      0.000      0.000      0.011      0.000
          OF    158.000     -6.727      0.000      8.906      0.000      0.000      0.000      0.000      0.011      0.000
          OF    159.000     -6.716      0.000      8.906      0.000      0.000      0.000      0.000      0.011      0.000
          OF    160.000     -6.706      0.000      8.906      0.000      0.000      0.000      0.000      0.011      0.000
          OF    161.000     -6.695      0.000      8.906      0.000      0.000      0.000      0.000      0.011      0.000
          OF    162.000     -6.684      0.000      8.906      0.000      0.000      0.000      0.000      0.011      0.000
          OF    163.000     -6.673      0.000      8.906      0.000      0.000      0.000      0.000      0.011      0.000
          OF    164.000     -6.662      0.000      8.906      0.000      0.000      0.000      0.000      0.011      0.000
          OF    165.000     -6.651      0.000      8.906      0.000      0.000      0.000      0.000      0.011      0.000
          OF    166.000     -6.640      0.000      8.906      0.000      0.000      0.000      0.000      0.011      0.000
          OF    167.000     -6.629      0.000      8.906      0.000      0.000      0.000      0.000      0.011      0.000
          OF    168.000     -6.619      0.000      8.906      0.000      0.000      0.000      0.000      0.011      0.000
          OF    169.000     -6.608      0.000      8.906      0.000      0.000      0.000      0.000      0.011      0.000
          OF    170.000     -6.597      0.000      8.906      0.000      0.000      0.000      0.000      0.011      0.000
          OF    171.000     -6.586      0.000      8.906      0.000      0.000      0.000      0.000      0.011      0.000
          OF    172.000     -6.575      0.000      8.906      0.000      0.000      0.000      0.000      0.011      0.000
          OF    173.000     -6.564      0.000      8.906      0.000      0.000      0.000      0.000      0.011      0.000
          OF    174.000     -6.553      0.000      8.906      0.000      0.000      0.000      0.000      0.011      0.000
          OF    175.000     -6.542      0.000      8.906      0.000      0.000      0.000      0.000      0.011      0.000
          OF    176.000     -6.531      0.000      8.906      0.000      0.000      0.000      0.000      0.011      0.000
          OF    177.000     -6.521      0.000      8.906      0.000      0.000      0.000      0.000      0.011      0.000
          OF    178.000     -6.510      0.000      8.906      0.000      0.000      0.000      0.000      0.011      0.000
          OF    179.000     -6.499      0.000      8.906      0.000      0.000      0.000      0.000      0.011      0.000
          OF    180.000     -6.488      0.000      8.906      0.000      0.000      0.000      0.000      0.009      0.000
          OF    181.000     -6.481      0.000      8.906      0.000      0.000      0.000      0.000      0.004      0.000
          OF    182.000     -6.480      0.000      8.906      0.000      0.000      0.000      0.000      0.001      0.000
          OF    183.000     -6.479      0.000      8.906      0.000      0.000      0.000      0.000      0.001      0.000
          OF    184.000     -6.478      0.000      8.906      0.000      0.000      0.000      0.000      0.001      0.000
          OF    185.000     -6.477      0.000      8.906      0.000      0.000      0.000      0.000      0.001      0.000
          OF    186.000     -6.476      0.000      8.906      0.000      0.000      0.000      0.000      0.001      0.000
          OF    187.000     -6.475      0.000      8.906      0.000      0.000      0.000      0.000      0.001      0.000
          OF    188.000     -6.474      0.000      8.906      0.000      0.000      0.000      0.000      0.001      0.000
          OF    189.000     -6.473      0.000      8.906      0.000      0.000      0.000      0.000      0.001      0.000
          OF    190.000     -6.472      0.000      8.906      0.000      0.000      0.000      0.000      0.001      0.000
          OF    191.000     -6.471      0.000      8.906      0.000      0.000      0.000      0.000      0.001      0.000
          OF    192.000     -6.470      0.000      8.906      0.000      0.000      0.000      0.000      0.001      0.000
          OF    193.000     -6.470      0.000      8.906      0.000      0.000      0.000      0.000      0.001      0.000
          OF    194.000     -6.469      0.000      8.906      0.000      0.000      0.000      0.000      0.001      0.000
          OF    195.000     -6.468      0.000      8.906      0.000      0.000      0.000      0.000      0.001      0.000
          OF    196.000     -6.467      0.000      8.906      0.000      0.000      0.000      0.000      0.001      0.000
          OF    197.000     -6.466      0.000      8.906      0.000      0.000      0.000      0.000      0.001      0.000
          OF    198.000     -6.465      0.000      8.906      0.000      0.000      0.000      0.000      0.001      0.000
          OF    199.000     -6.464      0.000      8.906      0.000      0.000      0.000      0.000      0.001      0.000
          OF    200.000     -6.463      0.000      8.906      0.000      0.000      0.000      0.000      0.001      0.000
          OF    201.000     -6.462      0.000      8.906      0.000      0.000      0.000      0.000      0.001      0.000
          OF    202.000     -6.461      0.000      8.906      0.000      0.000      0.000      0.000      0.001      0.000
          OF    203.000     -6.460      0.000      8.906      0.000      0.000      0.000      0.000      0.001      0.000
          OF    204.000     -6.459      0.000      8.906      0.000      0.000      0.000      0.000      0.001      0.000
          OF    205.000     -6.458      0.000      8.906      0.000      0.000      0.000      0.000      0.001      0.000
          OF    206.000     -6.458      0.000      8.906      0.000      0.000      0.000      0.000      0.001      0.000
          OF    207.000     -6.457      0.000      8.906      0.000      0.000      0.000      0.000      0.001      0.000
          OF    208.000     -6.456      0.000      8.906      0.000      0.000      0.000      0.000      0.001      0.000
          OF    209.000     -6.455      0.000      8.906      0.000      0.000      0.000      0.000      0.001      0.000
          OF    210.000     -6.454      0.000      8.906      0.000      0.000      0.000      0.000      0.001      0.000
          OF    211.000     -6.453      0.000      8.906      0.000      0.000      0.000      0.000      0.001      0.000
          OF    212.000     -6.452      0.000      8.906      0.000      0.000      0.000      0.000      0.001      0.000
          OF    213.000     -6.451      0.000      8.906      0.000      0.000      0.000      0.000      0.001      0.000
          OF    214.000     -6.450      0.000      8.906      0.000      0.000      0.000      0.000      0.001      0.000
          OF    215.000     -6.449      0.000      8.906      0.000      0.000      0.000      0.000      0.001      0.000
          OF    216.000     -6.448      0.000      8.906      0.000      0.000      0.000      0.000      0.001      0.000
          OF    217.000     -6.448      0.000      8.906      0.000      0.000      0.000      0.000      0.001      0.000
          OF    218.000     -6.447      0.000      8.906      0.000      0.000      0.000      0.000      0.001      0.000
          OF    219.000     -6.446      0.000      8.906      0.000      0.000      0.000      0.000      0.001      0.000
          OF    220.000     -6.445      0.000      8.906      0.000      0.000      0.000      0.000      0.001      0.000
          OF    221.000     -6.444      0.000      8.906      0.000      0.000      0.000      0.000      0.001      0.000
          OF    222.000     -6.443      0.000      8.906      0.000      0.000      0.000      0.000      0.001      0.000
          OF    223.000     -6.442      0.000      8.906      0.000      0.000      0.000      0.000      0.001      0.000
          OF    224.000     -6.441      0.000      8.906      0.000      0.000      0.000      0.000      0.001      0.000
          OF    225.000     -6.440      0.000      8.906      0.000      0.000      0.000      0.000      0.001      0.000
          OF    226.000     -6.439      0.000      8.906      0.000      0.000      0.000      0.000      0.001      0.000
          OF    227.000     -6.438      0.000      8.906      0.000      0.000      0.000      0.000      0.001      0.000
          OF    228.000     -6.437      0.000      8.906      0.000      0.000      0.000      0.000      0.001      0.000
          OF    229.000     -6.437      0.000      8.906      0.000      0.000      0.000      0.000      0.001      0.000
          OF    230.000     -6.436      0.000      8.906      0.000      0.000      0.000      0.000      0.001      0.000
          OF    231.000     -6.435      0.000      8.906      0.000      0.000      0.000      0.000      0.001      0.000
          OF    232.000     -6.434      0.000      8.906      0.000      0.000      0.000      0.000      0.001      0.000
          OF    233.000     -6.433      0.000      8.906      0.000      0.000      0.000      0.000      0.001      0.000
          OF    234.000     -6.432      0.000      8.906      0.000      0.000      0.000      0.000      0.001      0.000
          OF    235.000     -6.431      0.000      8.906      0.000      0.000      0.000      0.000      0.001      0.000
          OF    236.000     -6.430      0.000      8.906      0.000      0.000      0.000      0.000      0.001      0.000
          OF    237.000     -6.429      0.000      8.906      0.000      0.000      0.000      0.000      0.001      0.000
          OF    238.000     -6.428      0.000      8.906      0.000      0.000      0.000      0.000      0.001      0.000
          OF    239.000     -6.427      0.000      8.906      0.000      0.000      0.000      0.000      0.001      0.000
          OF    240.000     -6.426      0.000      8.906      0.000      0.000      0.000      0.000      0.001      0.000
          OF    241.000     -6.425      0.000      8.906      0.000      0.000      0.000      0.000      0.001      0.000
          OF    242.000     -6.425      0.000      8.906      0.000      0.000      0.000      0.000      0.001      0.000
          OF    243.000     -6.424      0.000      8.906      0.000      0.000      0.000      0.000      0.001      0.000
          OF    244.000     -6.423      0.000      8.906      0.000      0.000      0.000      0.000      0.001      0.000
          OF    245.000     -6.422      0.000      8.906      0.000      0.000      0.000      0.000      0.001      0.000
          OF    246.000     -6.421      0.000      8.906      0.000      0.000      0.000      0.000      0.001      0.000
          OF    247.000     -6.420      0.000      8.906      0.000      0.000      0.000      0.000      0.001      0.000
          OF    248.000     -6.419      0.000      8.906      0.000      0.000      0.000      0.000      0.001      0.000
          OF    249.000     -6.418      0.000      8.906      0.000      0.000      0.000      0.000      0.001      0.000
          OF    250.000     -6.417      0.000      8.906      0.000      0.000      0.000      0.000      0.001      0.000
          OF    251.000     -6.416      0.000      8.906      0.000      0.000      0.000      0.000      0.001      0.000
          OF    252.000     -6.415      0.000      8.906      0.000      0.000      0.000      0.000      0.001      0.000
          OF    253.000     -6.415      0.000      8.906      0.000      0.000      0.000      0.000      0.001      0.000
          OF    254.000     -6.414      0.000      8.906      0.000      0.000      0.000      0.000      0.001      0.000
          OF    255.000     -6.413      0.000      8.906      0.000      0.000      0.000      0.000      0.001      0.000
          OF    256.000     -6.412      0.000      8.906      0.000      0.000      0.000      0.000      0.001      0.000
          OF    257.000     -6.411      0.000      8.906      0.000      0.000      0.000      0.000      0.001      0.000
          OF    258.000     -6.410      0.000      8.906      0.000      0.000      0.000      0.000      0.001      0.000
          OF    259.000     -6.408      0.000      8.906      0.000      0.000      0.000      0.000      0.002      0.000
          OF    260.000     -6.406      0.000      8.906      0.000      0.000      0.000      0.000      0.002      0.000
          OF    261.000     -6.405      0.000      8.906      0.000      0.000      0.000      0.000      0.002      0.000
          OF    262.000     -6.403      0.000      8.906      0.000      0.000      0.000      0.000      0.002      0.000
          OF    263.000     -6.401      0.000      8.906      0.000      0.000      0.000      0.000      0.002      0.000
          OF    264.000     -6.399      0.000      8.906      0.000      0.000      0.000      0.000      0.002      0.000
          OF    265.000     -6.397      0.000      8.906      0.000      0.000      0.000      0.000      0.002      0.000
          OF    266.000     -6.396      0.000      8.906      0.000      0.000      0.000      0.000      0.002      0.000
          OF    267.000     -6.394      0.000      8.906      0.000      0.000      0.000      0.000      0.002      0.000
          OF    268.000     -6.392      0.000      8.906      0.000      0.000      0.000      0.000      0.002      0.000
          OF    269.000     -6.390      0.000      8.906      0.000      0.000      0.000      0.000      0.002      0.000
          OF    270.000     -6.388      0.000      8.906      0.000      0.000      0.000      0.000      0.002      0.000
          OF    271.000     -6.386      0.000      8.906      0.000      0.000      0.000      0.000      0.002      0.000
          OF    272.000     -6.385      0.000      8.906      0.000      0.000      0.000      0.000      0.002      0.000
          OF    273.000     -6.383      0.000      8.906      0.000      0.000      0.000      0.000      0.002      0.000
          OF    274.000     -6.381      0.000      8.906      0.000      0.000      0.000      0.000      0.002      0.000
          OF    275.000     -6.379      0.000      8.906      0.000      0.000      0.000      0.000      0.002      0.000
          OF    276.000     -6.377      0.000      8.906      0.000      0.000      0.000      0.000      0.002      0.000
          OF    277.000     -6.376      0.000      8.906      0.000      0.000      0.000      0.000      0.002      0.000
          OF    278.000     -6.374      0.000      8.906      0.000      0.000      0.000      0.000      0.002      0.000
          OF    279.000     -6.372      0.000      8.906      0.000      0.000      0.000      0.000      0.002      0.000
          OF    280.000     -6.370      0.000      8.906      0.000      0.000      0.000      0.000      0.002      0.000
          OF    281.000     -6.368      0.000      8.906      0.000      0.000      0.000      0.000      0.002      0.000
          OF    282.000     -6.366      0.000      8.906      0.000      0.000      0.000      0.000      0.002      0.000
          OF    283.000     -6.365      0.000      8.906      0.000      0.000      0.000      0.000      0.002      0.000
          OF    284.000     -6.363      0.000      8.906      0.000      0.000      0.000      0.000      0.002      0.000
          OF    285.000     -6.361      0.000      8.906      0.000      0.000      0.000      0.000      0.002      0.000
          OF    286.000     -6.359      0.000      8.906      0.000      0.000      0.000      0.000      0.002      0.000
          OF    287.000     -6.356      0.000      8.906      0.000      0.000      0.000      0.000      0.006      0.000
          OF    288.000     -6.348      0.000      8.906      0.000      0.000      0.000      0.000      0.009      0.000
          OF    289.000     -6.339      0.000      8.906      0.000      0.000      0.000      0.000      0.009      0.000
          OF    290.000     -6.331      0.000      8.906      0.000      0.000      0.000      0.000      0.009      0.000
          OF    291.000     -6.322      0.000      8.906      0.000      0.000      0.000      0.000      0.009      0.000
          OF    292.000     -6.314      0.000      8.906      0.000      0.000      0.000      0.000      0.009      0.000
          OF    293.000     -6.305      0.000      8.906      0.000      0.000      0.000      0.000      0.009      0.000
          OF    294.000     -6.297      0.000      8.906      0.000      0.000      0.000      0.000      0.009      0.000
          OF    295.000     -6.288      0.000      8.906      0.000      0.000      0.000      0.000      0.009      0.000
          OF    296.000     -6.280      0.000      8.906      0.000      0.000      0.000      0.000      0.009      0.000
          OF    297.000     -6.271      0.000      8.906      0.000      0.000      0.000      0.000      0.009      0.000
          OF    298.000     -6.262      0.000      8.906      0.000      0.000      0.000      0.000      0.009      0.000
          OF    299.000     -6.254      0.000      8.906      0.000      0.000      0.000      0.000      0.009      0.000
          OF    300.000     -6.245      0.000      8.906      0.000      0.000      0.000      0.000      0.034      0.000
          OF    301.000     -6.186      0.000      8.906      0.000      0.000      0.000      0.000      0.060      0.000
          OF    302.000     -6.124      0.000      8.906      0.000      0.000      0.000      0.000      0.061      0.000
          OF    303.000     -6.063      0.000      8.906      0.000      0.000      0.000      0.000      0.061      0.000
          OF    304.000     -6.002      0.000      8.906      0.000      0.000      0.000      0.000      0.061      0.000
          OF    305.000     -5.941      0.000      8.906      0.000      0.000      0.000      0.000      0.061      0.000
          OF    306.000     -5.880      0.000      8.906      0.000      0.000      0.000      0.000      0.061      0.000
          OF    307.000     -5.819      0.000      8.906      0.000      0.000      0.000      0.000      0.061      0.000
          OF    308.000     -5.758      0.000      8.906      0.000      0.000      0.000      0.000      0.061      0.000
          OF    309.000     -5.697      0.000      8.906      0.000      0.000      0.000      0.000      0.061      0.000
          OF    310.000     -5.635      0.000      8.906      0.000      0.000      0.000      0.000      0.061      0.000
          OF    311.000     -5.575      0.000      8.906      0.000      0.000      0.000      0.000      0.061      0.000
          OF    312.000     -5.513      0.000      8.906      0.000      0.000      0.000      0.000      0.061      0.000
          OF    313.000     -5.452      0.000      8.907      0.000      0.000      0.000      0.000      0.061      0.000
          OF    314.000     -5.391      0.000      8.907      0.000      0.000      0.000      0.000      0.061      0.000
          OF    315.000     -5.330      0.000      8.907      0.000      0.000      0.000      0.000      0.061      0.000
          OF    316.000     -5.269      0.000      8.907      0.000      0.000      0.000      0.000      0.061      0.000
          OF    317.000     -5.208      0.000      8.907      0.000      0.000      0.000      0.000      0.061      0.000
          OF    318.000     -5.147      0.000      8.907      0.000      0.000      0.000      0.000      0.061      0.000
          OF    319.000     -5.086      0.000      8.907      0.000      0.000      0.000      0.000      0.061      0.000
          OF    320.000     -5.024      0.000      8.907      0.000      0.000      0.000      0.000      0.061      0.000
          OF    321.000     -4.963      0.000      8.907      0.000      0.000      0.000      0.000      0.061      0.000
          OF    322.000     -4.902      0.000      8.907      0.000      0.000      0.000      0.000      0.061      0.000
          OF    323.000     -4.841      0.000      8.907      0.000      0.000      0.000      0.000      0.061      0.000
          OF    324.000     -4.780      0.000      8.907      0.000      0.000      0.000      0.000      0.061      0.000
          OF    325.000     -4.719      0.000      8.907      0.000      0.000      0.000      0.000      0.061      0.000
          OF    326.000     -4.658      0.000      8.907      0.000      0.000      0.000      0.000      0.061      0.000
          OF    327.000     -4.597      0.000      8.907      0.000      0.000      0.000      0.000      0.061      0.000
          OF    328.000     -4.536      0.000      8.907      0.000      0.000      0.000      0.000      0.061      0.000
          OF    329.000     -4.475      0.000      8.907      0.000      0.000      0.000      0.000      0.061      0.000
          OF    330.000     -4.413      0.000      8.907      0.000      0.000      0.000      0.000      0.061      0.000
          OF    331.000     -4.352      0.000      8.907      0.000      0.000      0.000      0.000      0.061      0.000
          OF    332.000     -4.291      0.000      8.907      0.000      0.000      0.000      0.000      0.061      0.000
          OF    333.000     -4.230      0.000      8.907      0.000      0.000      0.000      0.000      0.061      0.000
          OF    334.000     -4.169      0.000      8.907      0.000      0.000      0.000      0.000      0.061      0.000
          OF    335.000     -4.108      0.000      8.907      0.000      0.000      0.000      0.000      0.061      0.000
          OF    336.000     -4.047      0.000      8.907      0.000      0.000      0.000      0.000      0.061      0.000
          OF    337.000     -3.986      0.000      8.907      0.000      0.000      0.000      0.000      0.061      0.000
          OF    338.000     -3.924      0.000      8.907      0.000      0.000      0.000      0.000      0.061      0.000
          OF    339.000     -3.863      0.000      8.907      0.000      0.000      0.000      0.000      0.061      0.000
          OF    340.000     -3.802      0.000      8.907      0.000      0.000      0.000      0.000      0.061      0.000
          OF    341.000     -3.741      0.000      8.907      0.000      0.000      0.000      0.000      0.061      0.000
          OF    342.000     -3.680      0.000      8.907      0.000      0.000      0.000      0.000      0.061      0.000
          OF    343.000     -3.619      0.000      8.907      0.000      0.000      0.000      0.000      0.061      0.000
          OF    344.000     -3.558      0.000      8.907      0.000      0.000      0.000      0.000      0.061      0.000
          OF    345.000     -3.497      0.000      8.907      0.000      0.000      0.000      0.000      0.061      0.000
          OF    346.000     -3.436      0.000      8.907      0.000      0.000      0.000      0.000      0.061      0.000
          OF    347.000     -3.375      0.000      8.907      0.000      0.000      0.000      0.000      0.061      0.000
          OF    348.000     -3.313      0.000      8.907      0.000      0.000      0.000      0.000      0.061      0.000
          OF    349.000     -3.252      0.000      8.907      0.000      0.000      0.000      0.000      0.061      0.000
          OF    350.000     -3.191      0.000      8.907      0.000      0.000      0.000      0.000      0.061      0.000
          OF    351.000     -3.130      0.000      8.907      0.000      0.000      0.000      0.000      0.061      0.000
          OF    352.000     -3.069      0.000      8.907      0.000      0.000      0.000      0.000      0.061      0.000
          OF    353.000     -3.008      0.000      8.907      0.000      0.000      0.000      0.000      0.061      0.000
          OF    354.000     -2.947      0.000      8.907      0.000      0.000      0.000      0.000      0.061      0.000
          OF    355.000     -2.886      0.000      8.907      0.000      0.000      0.000      0.000      0.061      0.000
          OF    356.000     -2.825      0.000      8.907      0.000      0.000      0.000      0.000      0.061      0.000
          OF    357.000     -2.763      0.000      8.907      0.000      0.000      0.000      0.000      0.061      0.000
          OF    358.000     -2.702      0.000      8.907      0.000      0.000      0.000      0.000      0.061      0.000
          OF    359.000     -2.641      0.000      8.907      0.000      0.000      0.000      0.000      0.053      0.000
          OF    360.000     -2.597      0.000      8.907      0.000      0.000      0.000      0.000      0.030      0.000
          OF    361.000     -2.580      0.000      8.907      0.000      0.000      0.000      0.000      0.017      0.000
          OF    362.000     -2.563      0.000      8.907      0.000      0.000      0.000      0.000      0.017      0.000
          OF    363.000     -2.546      0.000      8.907      0.000      0.000      0.000      0.000      0.017      0.000
          OF    364.000     -2.529      0.000      8.907      0.000      0.000      0.000      0.000      0.017      0.000
          OF    365.000     -2.513      0.000      8.907      0.000      0.000      0.000      0.000      0.017      0.000
          OF    366.000     -2.496      0.000      8.907      0.000      0.000      0.000      0.000      0.017      0.000
          OF    367.000     -2.478      0.000      8.907      0.000      0.000      0.000      0.000      0.017      0.000
          OF    368.000     -2.462      0.000      8.907      0.000      0.000      0.000      0.000      0.017      0.000
          OF    369.000     -2.445      0.000      8.907      0.000      0.000      0.000      0.000      0.017      0.000
          OF    370.000     -2.428      0.000      8.907      0.000      0.000      0.000      0.000      0.017      0.000
          OF    371.000     -2.411      0.000      8.907      0.000      0.000      0.000      0.000      0.017      0.000
          OF    372.000     -2.394      0.000      8.907      0.000      0.000      0.000      0.000      0.017      0.000
          OF    373.000     -2.377      0.000      8.907      0.000      0.000      0.000      0.000      0.017      0.000
          OF    374.000     -2.360      0.000      8.907      0.000      0.000      0.000      0.000      0.017      0.000
          OF    375.000     -2.343      0.000      8.907      0.000      0.000      0.000      0.000      0.017      0.000
          OF    376.000     -2.326      0.000      8.907      0.000      0.000      0.000      0.000      0.017      0.000
          OF    377.000     -2.309      0.000      8.907      0.000      0.000      0.000      0.000      0.017      0.000
          OF    378.000     -2.292      0.000      8.907      0.000      0.000      0.000      0.000      0.017      0.000
          OF    379.000     -2.275      0.000      8.907      0.000      0.000      0.000      0.000      0.017      0.000
          OF    380.000     -2.259      0.000      8.907      0.000      0.000      0.000      0.000      0.017      0.000
          OF    381.000     -2.241      0.000      8.907      0.000      0.000      0.000      0.000      0.017      0.000
          OF    382.000     -2.225      0.000      8.907      0.000      0.000      0.000      0.000      0.017      0.000
          OF    383.000     -2.208      0.000      8.907      0.000      0.000      0.000      0.000      0.017      0.000
          OF    384.000     -2.191      0.000      8.907      0.000      0.000      0.000      0.000      0.017      0.000
          OF    385.000     -2.174      0.000      8.907      0.000      0.000      0.000      0.000      0.017      0.000
          OF    386.000     -2.157      0.000      8.907      0.000      0.000      0.000      0.000      0.017      0.000
          OF    387.000     -2.140      0.000      8.907      0.000      0.000      0.000      0.000      0.017      0.000
          OF    388.000     -2.123      0.000      8.907      0.000      0.000      0.000      0.000      0.017      0.000
          OF    389.000     -2.106      0.000      8.907      0.000      0.000      0.000      0.000      0.017      0.000
          OF    390.000     -2.089      0.000      8.907      0.000      0.000      0.000      0.000      0.017      0.000
          OF    391.000     -2.072      0.000      8.907      0.000      0.000      0.000      0.000      0.017      0.000
          OF    392.000     -2.055      0.000      8.907      0.000      0.000      0.000      0.000      0.017      0.000
          OF    393.000     -2.038      0.000      8.907      0.000      0.000      0.000      0.000      0.017      0.000
          OF    394.000     -2.021      0.000      8.907      0.000      0.000      0.000      0.000      0.017      0.000
          OF    395.000     -2.004      0.000      8.907      0.000      0.000      0.000      0.000      0.017      0.000
          OF    396.000     -1.988      0.000      8.907      0.000      0.000      0.000      0.000      0.017      0.000
          OF    397.000     -1.971      0.000      8.907      0.000      0.000      0.000      0.000      0.017      0.000
          OF    398.000     -1.954      0.000      8.907      0.000      0.000      0.000      0.000      0.017      0.000
          OF    399.000     -1.937      0.000      8.907      0.000      0.000      0.000      0.000      0.017      0.000
          OF    400.000     -1.920      0.000      8.907      0.000      0.000      0.000      0.000      0.017      0.000
          OF    401.000     -1.903      0.000      8.907      0.000      0.000      0.000      0.000      0.017      0.000
          OF    402.000     -1.886      0.000      8.907      0.000      0.000      0.000      0.000      0.017      0.000
          OF    403.000     -1.869      0.000      8.907      0.000      0.000      0.000      0.000      0.017      0.000
          OF    404.000     -1.852      0.000      8.907      0.000      0.000      0.000      0.000      0.017      0.000
          OF    405.000     -1.835      0.000      8.907      0.000      0.000      0.000      0.000      0.017      0.000
          OF    406.000     -1.818      0.000      8.907      0.000      0.000      0.000      0.000      0.017      0.000
          OF    407.000     -1.801      0.000      8.907      0.000      0.000      0.000      0.000      0.017      0.000
          OF    408.000     -1.784      0.000      8.907      0.000      0.000      0.000      0.000      0.017      0.000
          OF    409.000     -1.767      0.000      8.907      0.000      0.000      0.000      0.000      0.017      0.000
          OF    410.000     -1.750      0.000      8.907      0.000      0.000      0.000      0.000      0.017      0.000
          OF    411.000     -1.734      0.000      8.907      0.000      0.000      0.000      0.000      0.017      0.000
          OF    412.000     -1.717      0.000      8.907      0.000      0.000      0.000      0.000      0.017      0.000
          OF    413.000     -1.700      0.000      8.907      0.000      0.000      0.000      0.000      0.017      0.000
          OF    414.000     -1.683      0.000      8.907      0.000      0.000      0.000      0.000      0.017      0.000
          OF    415.000     -1.666      0.000      8.907      0.000      0.000      0.000      0.000      0.017      0.000
          OF    416.000     -1.649      0.000      8.907      0.000      0.000      0.000      0.000      0.017      0.000
          OF    417.000     -1.632      0.000      8.907      0.000      0.000      0.000      0.000      0.017      0.000
          OF    418.000     -1.615      0.000      8.907      0.000      0.000      0.000      0.000      0.017      0.000
          OF    419.000     -1.598      0.000      8.907      0.000      0.000      0.000      0.000      0.017      0.000
          OF    420.000     -1.581      0.000      8.907      0.000      0.000      0.000      0.000      0.017      0.000
          OF    421.000     -1.564      0.000      8.907      0.000      0.000      0.000      0.000      0.017      0.000
          OF    422.000     -1.547      0.000      8.907      0.000      0.000      0.000      0.000      0.017      0.000
          OF    423.000     -1.530      0.000      8.907      0.000      0.000      0.000      0.000      0.017      0.000
          OF    424.000     -1.513      0.000      8.907      0.000      0.000      0.000      0.000      0.017      0.000
          OF    425.000     -1.497      0.000      8.907      0.000      0.000      0.000      0.000      0.017      0.000
          OF    426.000     -1.480      0.000      8.907      0.000      0.000      0.000      0.000      0.017      0.000
          OF    427.000     -1.463      0.000      8.907      0.000      0.000      0.000      0.000      0.017      0.000
          OF    428.000     -1.446      0.000      8.907      0.000      0.000      0.000      0.000      0.017      0.000
          OF    429.000     -1.429      0.000      8.907      0.000      0.000      0.000      0.000      0.017      0.000
          OF    430.000     -1.412      0.000      8.907      0.000      0.000      0.000      0.000      0.017      0.000
          OF    431.000     -1.395      0.000      8.907      0.000      0.000      0.000      0.000      0.017      0.000
          OF    432.000     -1.378      0.000      8.907      0.000      0.000      0.000      0.000      0.017      0.000
          OF    433.000     -1.361      0.000      8.907      0.000      0.000      0.000      0.000      0.019      0.000
          IF    573.000      1.314      0.000      8.908      0.000      0.000      0.000      0.000      0.019      0.000
          IF    574.000      1.347      0.000      8.908      0.000      0.000      0.000      0.000      0.033      0.000
          IF    575.000      1.380      0.000      8.908      0.000      0.000      0.000      0.000      0.033      0.000
          IF    576.000      1.413      0.000      8.908      0.000      0.000      0.000      0.000      0.033      0.000
          IF    577.000      1.445      0.000      8.908      0.000      0.000      0.000      0.000      0.033      0.000
          IF    578.000      1.479      0.000      8.908      0.000      0.000      0.000      0.000      0.033      0.000
          IF    579.000      1.511      0.000      8.908      0.000      0.000      0.000      0.000      0.033      0.000
          IF    580.000      1.544      0.000      8.908      0.000      0.000      0.000      0.000      0.033      0.000
          IF    581.000      1.577      0.000      8.908      0.000      0.000      0.000      0.000      0.033      0.000
          IF    582.000      1.610      0.000      8.908      0.000      0.000      0.000      0.000      0.033      0.000
          IF    583.000      1.643      0.000      8.908      0.000      0.000      0.000      0.000      0.033      0.000
          IF    584.000      1.676      0.000      8.908      0.000      0.000      0.000      0.000      0.033      0.000
          IF    585.000      1.709      0.000      8.908      0.000      0.000      0.000      0.000      0.033      0.000
          IF    586.000      1.742      0.000      8.908      0.000      0.000      0.000      0.000      0.033      0.000
          IF    587.000      1.775      0.000      8.908      0.000      0.000      0.000      0.000      0.033      0.000
          IF    588.000      1.808      0.000      8.908      0.000      0.000      0.000      0.000      0.033      0.000
          IF    589.000      1.841      0.000      8.908      0.000      0.000      0.000      0.000      0.033      0.000
          IF    590.000      1.874      0.000      8.908      0.000      0.000      0.000      0.000      0.033      0.000
          IF    591.000      1.906      0.000      8.908      0.000      0.000      0.000      0.000      0.033      0.000
          IF    592.000      1.939      0.000      8.908      0.000      0.000      0.000      0.000      0.033      0.000
          IF    593.000      1.972      0.000      8.908      0.000      0.000      0.000      0.000      0.033      0.000
          IF    594.000      2.005      0.000      8.908      0.000      0.000      0.000      0.000      0.033      0.000
          IF    595.000      2.038      0.000      8.908      0.000      0.000      0.000      0.000      0.033      0.000
          IF    596.000      2.071      0.000      8.908      0.000      0.000      0.000      0.000      0.033      0.000
          IF    597.000      2.104      0.000      8.908      0.000      0.000      0.000      0.000      0.033      0.000
          IF    598.000      2.137      0.000      8.908      0.000      0.000      0.000      0.000      0.033      0.000
          IF    599.000      2.170      0.000      8.908      0.000      0.000      0.000      0.000      0.033      0.000
          IF    600.000      2.203      0.000      8.909      0.000      0.000      0.000      0.000      0.033      0.000
          IF    601.000      2.236      0.000      8.909      0.000      0.000      0.000      0.000      0.033      0.000
          IF    602.000      2.269      0.000      8.909      0.000      0.000      0.000      0.000      0.033      0.000
          IF    603.000      2.302      0.000      8.909      0.000      0.000      0.000      0.000      0.033      0.000
          IF    604.000      2.335      0.000      8.909      0.000      0.000      0.000      0.000      0.033      0.000
          IF    605.000      2.368      0.000      8.909      0.000      0.000      0.000      0.000      0.033      0.000
          IF    606.000      2.401      0.000      8.909      0.000      0.000      0.000      0.000      0.033      0.000
          IF    607.000      2.434      0.000      8.909      0.000      0.000      0.000      0.000      0.033      0.000
          IF    608.000      2.466      0.000      8.909      0.000      0.000      0.000      0.000      0.033      0.000
          IF    609.000      2.499      0.000      8.909      0.000      0.000      0.000      0.000      0.033      0.000
          IF    610.000      2.532      0.000      8.909      0.000      0.000      0.000      0.000      0.033      0.000
          IF    611.000      2.565      0.000      8.909      0.000      0.000      0.000      0.000      0.033      0.000
          IF    612.000      2.598      0.000      8.909      0.000      0.000      0.000      0.000      0.033      0.000
          IF    613.000      2.631      0.000      8.909      0.000      0.000      0.000      0.000      0.033      0.000
          IF    614.000      2.664      0.000      8.909      0.000      0.000      0.000      0.000      0.033      0.000
          IF    615.000      2.697      0.000      8.909      0.000      0.000      0.000      0.000      0.033      0.000
          IF    616.000      2.730      0.000      8.909      0.000      0.000      0.000      0.000      0.033      0.000
          IF    617.000      2.763      0.000      8.909      0.000      0.000      0.000      0.000      0.033      0.000
          IF    618.000      2.796      0.000      8.909      0.000      0.000      0.000      0.000      0.033      0.000
          IF    619.000      2.829      0.000      8.909      0.000      0.000      0.000      0.000      0.033      0.000
          IF    620.000      2.862      0.000      8.909      0.000      0.000      0.000      0.000      0.033      0.000
          IF    621.000      2.895      0.000      8.909      0.000      0.000      0.000      0.000      0.046      0.000
          IF    622.000      2.954      0.000      8.909      0.000      0.000      0.000      0.000      0.013      0.000
          IF    657.000      3.373      0.000      8.909      0.000      0.000      0.000      0.000      0.026      0.000
          IF    676.500      4.357      0.000      8.909      0.000      0.000      0.000      0.000      0.032      0.000
          IF    701.500      4.784      0.000      8.909      0.000      0.000      0.000      0.000      0.005      0.000
          IF    719.000      4.587      0.000      8.909      0.000      0.000      0.000      0.000      0.156      0.000
          IF    721.800      7.955      0.000      8.924      0.000      0.000      0.000      0.000      1.205      0.000
          IF    722.600      8.924      0.000      8.924      0.000      0.000      0.000      0.000      1.211      0.000
          ET      0.000      0.000      0.000      0.000      0.000      0.000      0.000      0.000      0.000      0.000
1
            END        END      FETCH SURGE ELEV SURGE ELEV    INITIAL    INITIAL                BOTTOM    AVERAGE
        STATION  ELEVATION     LENGTH    10-YEAR   100-YEAR WAVE HEIGHT  W. PERIOD                SLOPE    A-ZONES
  IE      0.000     -8.241      1.000      1.000      8.906      2.811      2.702     56.140      0.009      0.000
            END        END  NEW SURGE  NEW SURGE                                                 BOTTOM    AVERAGE
        STATION  ELEVATION    10-YEAR   100-YEAR                                                  SLOPE    A-ZONES
  OF      1.000     -8.232      0.000      8.906      0.000      0.000      0.000      0.000      0.009      0.000
            END        END  NEW SURGE  NEW SURGE                                                 BOTTOM    AVERAGE
        STATION  ELEVATION    10-YEAR   100-YEAR                                                  SLOPE    A-ZONES
  OF      2.000     -8.224      0.000      8.906      0.000      0.000      0.000      0.000      0.009      0.000
            END        END  NEW SURGE  NEW SURGE                                                 BOTTOM    AVERAGE
        STATION  ELEVATION    10-YEAR   100-YEAR                                                  SLOPE    A-ZONES
  OF      3.000     -8.215      0.000      8.906      0.000      0.000      0.000      0.000      0.009      0.000
            END        END  NEW SURGE  NEW SURGE                                                 BOTTOM    AVERAGE
        STATION  ELEVATION    10-YEAR   100-YEAR                                                  SLOPE    A-ZONES
  OF      4.000     -8.207      0.000      8.906      0.000      0.000      0.000      0.000      0.009      0.000
            END        END  NEW SURGE  NEW SURGE                                                 BOTTOM    AVERAGE
        STATION  ELEVATION    10-YEAR   100-YEAR                                                  SLOPE    A-ZONES
  OF      5.000     -8.198      0.000      8.906      0.000      0.000      0.000      0.000      0.009      0.000
            END        END  NEW SURGE  NEW SURGE                                                 BOTTOM    AVERAGE
        STATION  ELEVATION    10-YEAR   100-YEAR                                                  SLOPE    A-ZONES
  OF      6.000     -8.190      0.000      8.906      0.000      0.000      0.000      0.000      0.009      0.000
            END        END  NEW SURGE  NEW SURGE                                                 BOTTOM    AVERAGE
        STATION  ELEVATION    10-YEAR   100-YEAR                                                  SLOPE    A-ZONES
  OF      7.000     -8.182      0.000      8.906      0.000      0.000      0.000      0.000      0.009      0.000
            END        END  NEW SURGE  NEW SURGE                                                 BOTTOM    AVERAGE
        STATION  ELEVATION    10-YEAR   100-YEAR                                                  SLOPE    A-ZONES
  OF      8.000     -8.173      0.000      8.906      0.000      0.000      0.000      0.000      0.009      0.000
            END        END  NEW SURGE  NEW SURGE                                                 BOTTOM    AVERAGE
        STATION  ELEVATION    10-YEAR   100-YEAR                                                  SLOPE    A-ZONES
  OF      9.000     -8.165      0.000      8.906      0.000      0.000      0.000      0.000      0.009      0.000
            END        END  NEW SURGE  NEW SURGE                                                 BOTTOM    AVERAGE
        STATION  ELEVATION    10-YEAR   100-YEAR                                                  SLOPE    A-ZONES
  OF     10.000     -8.156      0.000      8.906      0.000      0.000      0.000      0.000      0.009      0.000
            END        END  NEW SURGE  NEW SURGE                                                 BOTTOM    AVERAGE
        STATION  ELEVATION    10-YEAR   100-YEAR                                                  SLOPE    A-ZONES
  OF     11.000     -8.148      0.000      8.906      0.000      0.000      0.000      0.000      0.009      0.000
            END        END  NEW SURGE  NEW SURGE                                                 BOTTOM    AVERAGE
        STATION  ELEVATION    10-YEAR   100-YEAR                                                  SLOPE    A-ZONES
  OF     12.000     -8.139      0.000      8.906      0.000      0.000      0.000      0.000      0.008      0.000
            END        END  NEW SURGE  NEW SURGE                                                 BOTTOM    AVERAGE
        STATION  ELEVATION    10-YEAR   100-YEAR                                                  SLOPE    A-ZONES
  OF     13.000     -8.132      0.000      8.906      0.000      0.000      0.000      0.000      0.007      0.000
            END        END  NEW SURGE  NEW SURGE                                                 BOTTOM    AVERAGE
        STATION  ELEVATION    10-YEAR   100-YEAR                                                  SLOPE    A-ZONES
  OF     14.000     -8.125      0.000      8.906      0.000      0.000      0.000      0.000      0.006      0.000
            END        END  NEW SURGE  NEW SURGE                                                 BOTTOM    AVERAGE
        STATION  ELEVATION    10-YEAR   100-YEAR                                                  SLOPE    A-ZONES
  OF     15.000     -8.119      0.000      8.906      0.000      0.000      0.000      0.000      0.006      0.000
            END        END  NEW SURGE  NEW SURGE                                                 BOTTOM    AVERAGE
        STATION  ELEVATION    10-YEAR   100-YEAR                                                  SLOPE    A-ZONES
  OF     16.000     -8.113      0.000      8.906      0.000      0.000      0.000      0.000      0.006      0.000
            END        END  NEW SURGE  NEW SURGE                                                 BOTTOM    AVERAGE
        STATION  ELEVATION    10-YEAR   100-YEAR                                                  SLOPE    A-ZONES
  OF     17.000     -8.107      0.000      8.906      0.000      0.000      0.000      0.000      0.006      0.000
            END        END  NEW SURGE  NEW SURGE                                                 BOTTOM    AVERAGE
        STATION  ELEVATION    10-YEAR   100-YEAR                                                  SLOPE    A-ZONES
  OF     18.000     -8.101      0.000      8.906      0.000      0.000      0.000      0.000      0.006      0.000
            END        END  NEW SURGE  NEW SURGE                                                 BOTTOM    AVERAGE
        STATION  ELEVATION    10-YEAR   100-YEAR                                                  SLOPE    A-ZONES
  OF     19.000     -8.095      0.000      8.906      0.000      0.000      0.000      0.000      0.006      0.000
            END        END  NEW SURGE  NEW SURGE                                                 BOTTOM    AVERAGE
        STATION  ELEVATION    10-YEAR   100-YEAR                                                  SLOPE    A-ZONES
  OF     20.000     -8.089      0.000      8.906      0.000      0.000      0.000      0.000      0.006      0.000
            END        END  NEW SURGE  NEW SURGE                                                 BOTTOM    AVERAGE
        STATION  ELEVATION    10-YEAR   100-YEAR                                                  SLOPE    A-ZONES
  OF     21.000     -8.083      0.000      8.906      0.000      0.000      0.000      0.000      0.006      0.000
            END        END  NEW SURGE  NEW SURGE                                                 BOTTOM    AVERAGE
        STATION  ELEVATION    10-YEAR   100-YEAR                                                  SLOPE    A-ZONES
  OF     22.000     -8.077      0.000      8.906      0.000      0.000      0.000      0.000      0.006      0.000
            END        END  NEW SURGE  NEW SURGE                                                 BOTTOM    AVERAGE
        STATION  ELEVATION    10-YEAR   100-YEAR                                                  SLOPE    A-ZONES
  OF     23.000     -8.071      0.000      8.906      0.000      0.000      0.000      0.000      0.006      0.000
            END        END  NEW SURGE  NEW SURGE                                                 BOTTOM    AVERAGE
        STATION  ELEVATION    10-YEAR   100-YEAR                                                  SLOPE    A-ZONES
  OF     24.000     -8.065      0.000      8.906      0.000      0.000      0.000      0.000      0.006      0.000
            END        END  NEW SURGE  NEW SURGE                                                 BOTTOM    AVERAGE
        STATION  ELEVATION    10-YEAR   100-YEAR                                                  SLOPE    A-ZONES
  OF     25.000     -8.059      0.000      8.906      0.000      0.000      0.000      0.000      0.006      0.000
            END        END  NEW SURGE  NEW SURGE                                                 BOTTOM    AVERAGE
        STATION  ELEVATION    10-YEAR   100-YEAR                                                  SLOPE    A-ZONES
  OF     26.000     -8.053      0.000      8.906      0.000      0.000      0.000      0.000      0.006      0.000
            END        END  NEW SURGE  NEW SURGE                                                 BOTTOM    AVERAGE
        STATION  ELEVATION    10-YEAR   100-YEAR                                                  SLOPE    A-ZONES
  OF     27.000     -8.047      0.000      8.906      0.000      0.000      0.000      0.000      0.006      0.000
            END        END  NEW SURGE  NEW SURGE                                                 BOTTOM    AVERAGE
        STATION  ELEVATION    10-YEAR   100-YEAR                                                  SLOPE    A-ZONES
  OF     28.000     -8.040      0.000      8.906      0.000      0.000      0.000      0.000      0.006      0.000
            END        END  NEW SURGE  NEW SURGE                                                 BOTTOM    AVERAGE
        STATION  ELEVATION    10-YEAR   100-YEAR                                                  SLOPE    A-ZONES
  OF     29.000     -8.035      0.000      8.906      0.000      0.000      0.000      0.000      0.005      0.000
            END        END  NEW SURGE  NEW SURGE                                                 BOTTOM    AVERAGE
        STATION  ELEVATION    10-YEAR   100-YEAR                                                  SLOPE    A-ZONES
  OF     30.000     -8.030      0.000      8.906      0.000      0.000      0.000      0.000      0.005      0.000
            END        END  NEW SURGE  NEW SURGE                                                 BOTTOM    AVERAGE
        STATION  ELEVATION    10-YEAR   100-YEAR                                                  SLOPE    A-ZONES
  OF     31.000     -8.025      0.000      8.906      0.000      0.000      0.000      0.000      0.005      0.000
            END        END  NEW SURGE  NEW SURGE                                                 BOTTOM    AVERAGE
        STATION  ELEVATION    10-YEAR   100-YEAR                                                  SLOPE    A-ZONES
  OF     32.000     -8.021      0.000      8.906      0.000      0.000      0.000      0.000      0.005      0.000
            END        END  NEW SURGE  NEW SURGE                                                 BOTTOM    AVERAGE
        STATION  ELEVATION    10-YEAR   100-YEAR                                                  SLOPE    A-ZONES
  OF     33.000     -8.016      0.000      8.906      0.000      0.000      0.000      0.000      0.008      0.000
            END        END  NEW SURGE  NEW SURGE                                                 BOTTOM    AVERAGE
        STATION  ELEVATION    10-YEAR   100-YEAR                                                  SLOPE    A-ZONES
  OF     34.000     -8.005      0.000      8.906      0.000      0.000      0.000      0.000      0.010      0.000
            END        END  NEW SURGE  NEW SURGE                                                 BOTTOM    AVERAGE
        STATION  ELEVATION    10-YEAR   100-YEAR                                                  SLOPE    A-ZONES
  OF     35.000     -7.995      0.000      8.906      0.000      0.000      0.000      0.000      0.010      0.000
            END        END  NEW SURGE  NEW SURGE                                                 BOTTOM    AVERAGE
        STATION  ELEVATION    10-YEAR   100-YEAR                                                  SLOPE    A-ZONES
  OF     36.000     -7.985      0.000      8.906      0.000      0.000      0.000      0.000      0.010      0.000
            END        END  NEW SURGE  NEW SURGE                                                 BOTTOM    AVERAGE
        STATION  ELEVATION    10-YEAR   100-YEAR                                                  SLOPE    A-ZONES
  OF     37.000     -7.975      0.000      8.906      0.000      0.000      0.000      0.000      0.010      0.000
            END        END  NEW SURGE  NEW SURGE                                                 BOTTOM    AVERAGE
        STATION  ELEVATION    10-YEAR   100-YEAR                                                  SLOPE    A-ZONES
  OF     38.000     -7.964      0.000      8.906      0.000      0.000      0.000      0.000      0.010      0.000
            END        END  NEW SURGE  NEW SURGE                                                 BOTTOM    AVERAGE
        STATION  ELEVATION    10-YEAR   100-YEAR                                                  SLOPE    A-ZONES
  OF     39.000     -7.954      0.000      8.906      0.000      0.000      0.000      0.000      0.010      0.000
            END        END  NEW SURGE  NEW SURGE                                                 BOTTOM    AVERAGE
        STATION  ELEVATION    10-YEAR   100-YEAR                                                  SLOPE    A-ZONES
  OF     40.000     -7.944      0.000      8.906      0.000      0.000      0.000      0.000      0.010      0.000
            END        END  NEW SURGE  NEW SURGE                                                 BOTTOM    AVERAGE
        STATION  ELEVATION    10-YEAR   100-YEAR                                                  SLOPE    A-ZONES
  OF     41.000     -7.934      0.000      8.906      0.000      0.000      0.000      0.000      0.010      0.000
            END        END  NEW SURGE  NEW SURGE                                                 BOTTOM    AVERAGE
        STATION  ELEVATION    10-YEAR   100-YEAR                                                  SLOPE    A-ZONES
  OF     42.000     -7.924      0.000      8.906      0.000      0.000      0.000      0.000      0.010      0.000
            END        END  NEW SURGE  NEW SURGE                                                 BOTTOM    AVERAGE
        STATION  ELEVATION    10-YEAR   100-YEAR                                                  SLOPE    A-ZONES
  OF     43.000     -7.913      0.000      8.906      0.000      0.000      0.000      0.000      0.010      0.000
            END        END  NEW SURGE  NEW SURGE                                                 BOTTOM    AVERAGE
        STATION  ELEVATION    10-YEAR   100-YEAR                                                  SLOPE    A-ZONES
  OF     44.000     -7.903      0.000      8.906      0.000      0.000      0.000      0.000      0.010      0.000
            END        END  NEW SURGE  NEW SURGE                                                 BOTTOM    AVERAGE
        STATION  ELEVATION    10-YEAR   100-YEAR                                                  SLOPE    A-ZONES
  OF     45.000     -7.893      0.000      8.906      0.000      0.000      0.000      0.000      0.010      0.000
            END        END  NEW SURGE  NEW SURGE                                                 BOTTOM    AVERAGE
        STATION  ELEVATION    10-YEAR   100-YEAR                                                  SLOPE    A-ZONES
  OF     46.000     -7.883      0.000      8.906      0.000      0.000      0.000      0.000      0.010      0.000
            END        END  NEW SURGE  NEW SURGE                                                 BOTTOM    AVERAGE
        STATION  ELEVATION    10-YEAR   100-YEAR                                                  SLOPE    A-ZONES
  OF     47.000     -7.872      0.000      8.906      0.000      0.000      0.000      0.000      0.010      0.000
            END        END  NEW SURGE  NEW SURGE                                                 BOTTOM    AVERAGE
        STATION  ELEVATION    10-YEAR   100-YEAR                                                  SLOPE    A-ZONES
  OF     48.000     -7.862      0.000      8.906      0.000      0.000      0.000      0.000      0.010      0.000
            END        END  NEW SURGE  NEW SURGE                                                 BOTTOM    AVERAGE
        STATION  ELEVATION    10-YEAR   100-YEAR                                                  SLOPE    A-ZONES
  OF     49.000     -7.852      0.000      8.906      0.000      0.000      0.000      0.000      0.010      0.000
            END        END  NEW SURGE  NEW SURGE                                                 BOTTOM    AVERAGE
        STATION  ELEVATION    10-YEAR   100-YEAR                                                  SLOPE    A-ZONES
  OF     50.000     -7.842      0.000      8.906      0.000      0.000      0.000      0.000      0.010      0.000
            END        END  NEW SURGE  NEW SURGE                                                 BOTTOM    AVERAGE
        STATION  ELEVATION    10-YEAR   100-YEAR                                                  SLOPE    A-ZONES
  OF     51.000     -7.832      0.000      8.906      0.000      0.000      0.000      0.000      0.010      0.000
            END        END  NEW SURGE  NEW SURGE                                                 BOTTOM    AVERAGE
        STATION  ELEVATION    10-YEAR   100-YEAR                                                  SLOPE    A-ZONES
  OF     52.000     -7.821      0.000      8.906      0.000      0.000      0.000      0.000      0.010      0.000
            END        END  NEW SURGE  NEW SURGE                                                 BOTTOM    AVERAGE
        STATION  ELEVATION    10-YEAR   100-YEAR                                                  SLOPE    A-ZONES
  OF     53.000     -7.811      0.000      8.906      0.000      0.000      0.000      0.000      0.010      0.000
[...]
                                        OF     312.00         2.93         2.74        10.95
                                        OF     313.00         2.93         2.74        10.95
                                        OF     314.00         2.92         2.74        10.95
                                        OF     315.00         2.92         2.74        10.95
                                        OF     316.00         2.92         2.74        10.95
                                        OF     317.00         2.92         2.74        10.95
                                        OF     318.00         2.92         2.74        10.95
                                        OF     319.00         2.92         2.74        10.95
                                        OF     320.00         2.92         2.74        10.95
                                        OF     321.00         2.92         2.74        10.95
                                        OF     322.00         2.92         2.74        10.95
                                        OF     323.00         2.92         2.74        10.95
                                        OF     324.00         2.92         2.74        10.95
                                        OF     325.00         2.92         2.74        10.95
                                        OF     326.00         2.91         2.74        10.95
                                        OF     327.00         2.91         2.74        10.95
                                        OF     328.00         2.91         2.74        10.95
                                        OF     329.00         2.91         2.74        10.94
                                        OF     330.00         2.91         2.74        10.94
                                        OF     331.00         2.91         2.74        10.94
                                        OF     332.00         2.91         2.74        10.94
                                        OF     333.00         2.91         2.74        10.94
                                        OF     334.00         2.91         2.74        10.94
                                        OF     335.00         2.90         2.74        10.94
                                        OF     336.00         2.90         2.74        10.94
                                        OF     337.00         2.90         2.74        10.94
                                        OF     338.00         2.90         2.74        10.94
                                        OF     339.00         2.90         2.74        10.94
                                        OF     340.00         2.90         2.74        10.94
                                        OF     341.00         2.90         2.74        10.94
                                        OF     342.00         2.90         2.74        10.93
                                        OF     343.00         2.90         2.74        10.93
                                        OF     344.00         2.89         2.74        10.93
                                        OF     345.00         2.89         2.74        10.93
                                        OF     346.00         2.89         2.74        10.93
                                        OF     347.00         2.89         2.74        10.93
                                        OF     348.00         2.89         2.74        10.93
                                        OF     349.00         2.89         2.74        10.93
                                        OF     350.00         2.89         2.74        10.93
                                        OF     351.00         2.89         2.74        10.93
                                        OF     352.00         2.88         2.74        10.93
                                        OF     353.00         2.88         2.74        10.93
                                        OF     354.00         2.88         2.74        10.92
                                        OF     355.00         2.88         2.74        10.92
                                        OF     356.00         2.88         2.75        10.92
                                        OF     357.00         2.88         2.75        10.92
                                        OF     358.00         2.88         2.75        10.92
                                        OF     359.00         2.88         2.75        10.92
                                        OF     360.00         2.87         2.75        10.92
                                        OF     361.00         2.87         2.75        10.92
                                        OF     362.00         2.87         2.75        10.92
                                        OF     363.00         2.87         2.75        10.92
                                        OF     364.00         2.87         2.75        10.92
                                        OF     365.00         2.87         2.75        10.92
                                        OF     366.00         2.87         2.75        10.92
                                        OF     367.00         2.87         2.75        10.92
                                        OF     368.00         2.87         2.75        10.92
                                        OF     369.00         2.87         2.75        10.92
                                        OF     370.00         2.87         2.75        10.92
                                        OF     371.00         2.87         2.75        10.92
                                        OF     372.00         2.87         2.75        10.92
                                        OF     373.00         2.87         2.75        10.92
                                        OF     374.00         2.87         2.75        10.92
                                        OF     375.00         2.87         2.75        10.92
                                        OF     376.00         2.87         2.75        10.92
                                        OF     377.00         2.87         2.75        10.92
                                        OF     378.00         2.87         2.75        10.92
                                        OF     379.00         2.87         2.75        10.92
                                        OF     380.00         2.87         2.75        10.92
                                        OF     381.00         2.87         2.75        10.92
                                        OF     382.00         2.87         2.75        10.92
                                        OF     383.00         2.87         2.75        10.92
                                        OF     384.00         2.87         2.75        10.92
                                        OF     385.00         2.87         2.75        10.92
                                        OF     386.00         2.87         2.75        10.92
                                        OF     387.00         2.87         2.75        10.92
                                        OF     388.00         2.87         2.75        10.92
                                        OF     389.00         2.87         2.75        10.92
                                        OF     390.00         2.87         2.75        10.92
                                        OF     391.00         2.87         2.75        10.92
                                        OF     392.00         2.87         2.75        10.92
                                        OF     393.00         2.87         2.75        10.92
                                        OF     394.00         2.87         2.75        10.92
                                        OF     395.00         2.87         2.75        10.92
                                        OF     396.00         2.87         2.75        10.92
                                        OF     397.00         2.87         2.75        10.92
                                        OF     398.00         2.87         2.75        10.92
                                        OF     399.00         2.87         2.75        10.92
                                        OF     400.00         2.87         2.75        10.92
                                        OF     401.00         2.87         2.75        10.92
                                        OF     402.00         2.87         2.75        10.92
                                        OF     403.00         2.87         2.75        10.92
                                        OF     404.00         2.87         2.75        10.92
                                        OF     405.00         2.87         2.75        10.92
                                        OF     406.00         2.87         2.75        10.92
                                        OF     407.00         2.87         2.75        10.92
                                        OF     408.00         2.87         2.75        10.92
                                        OF     409.00         2.87         2.75        10.92
                                        OF     410.00         2.87         2.75        10.92
                                        OF     411.00         2.87         2.75        10.92
                                        OF     412.00         2.87         2.75        10.92
                                        OF     413.00         2.87         2.75        10.92
                                        OF     414.00         2.87         2.75        10.92
                                        OF     415.00         2.87         2.75        10.92
                                        OF     416.00         2.87         2.75        10.92
                                        OF     417.00         2.87         2.75        10.92
                                        OF     418.00         2.87         2.75        10.92
                                        OF     419.00         2.87         2.75        10.92
                                        OF     420.00         2.87         2.75        10.92
                                        OF     421.00         2.87         2.75        10.92
                                        OF     422.00         2.87         2.75        10.92
                                        OF     423.00         2.87         2.75        10.92
                                        OF     424.00         2.87         2.75        10.92
                                        OF     425.00         2.87         2.75        10.92
                                        OF     426.00         2.87         2.75        10.92
                                        OF     427.00         2.87         2.75        10.92
                                        OF     428.00         2.87         2.75        10.92
                                        OF     429.00         2.87         2.75        10.92
                                        OF     430.00         2.87         2.75        10.92
                                        OF     431.00         2.87         2.75        10.92
                                        OF     432.00         2.87         2.75        10.92
                                        OF     433.00         2.87         2.75        10.92
                                        IF     573.00         2.86         2.77        10.91
                                        IF     574.00         2.86         2.77        10.91
                                        IF     575.00         2.86         2.77        10.91
                                        IF     576.00         2.86         2.77        10.91
                                        IF     577.00         2.86         2.77        10.91
                                        IF     578.00         2.86         2.77        10.91
                                        IF     579.00         2.86         2.77        10.91
                                        IF     580.00         2.86         2.77        10.91
                                        IF     581.00         2.86         2.77        10.91
                                        IF     582.00         2.86         2.77        10.91
                                        IF     583.00         2.86         2.77        10.91
                                        IF     584.00         2.86         2.77        10.91
                                        IF     585.00         2.86         2.77        10.91
                                        IF     586.00         2.86         2.77        10.91
                                        IF     587.00         2.86         2.77        10.91
                                        IF     588.00         2.86         2.77        10.91
                                        IF     589.00         2.86         2.77        10.91
                                        IF     590.00         2.86         2.77        10.91
                                        IF     591.00         2.86         2.77        10.91
                                        IF     592.00         2.86         2.77        10.91
                                        IF     593.00         2.86         2.77        10.91
                                        IF     594.00         2.86         2.77        10.91
                                        IF     595.00         2.86         2.77        10.91
                                        IF     596.00         2.86         2.77        10.91
                                        IF     597.00         2.86         2.77        10.91
                                        IF     598.00         2.86         2.77        10.91
                                        IF     599.00         2.86         2.77        10.91
                                        IF     600.00         2.86         2.77        10.91
                                        IF     601.00         2.86         2.77        10.91
                                        IF     602.00         2.86         2.77        10.91
                                        IF     603.00         2.86         2.77        10.91
                                        IF     604.00         2.86         2.77        10.91
                                        IF     605.00         2.86         2.77        10.91
                                        IF     606.00         2.86         2.77        10.91
                                        IF     607.00         2.86         2.77        10.91
                                        IF     608.00         2.86         2.77        10.91
                                        IF     609.00         2.86         2.77        10.91
                                        IF     610.00         2.86         2.77        10.91
                                        IF     611.00         2.86         2.77        10.91
                                        IF     612.00         2.87         2.77        10.91
                                        IF     613.00         2.87         2.77        10.92
                                        IF     614.00         2.87         2.77        10.92
                                        IF     615.00         2.87         2.77        10.92
                                        IF     616.00         2.87         2.77        10.92
                                        IF     617.00         2.87         2.77        10.92
                                        IF     618.00         2.87         2.78        10.92
                                        IF     619.00         2.87         2.78        10.92
                                        IF     620.00         2.87         2.78        10.92
                                        IF     621.00         2.87         2.78        10.92
                                        IF     622.00         2.87         2.78        10.92
                                        IF     657.00         2.89         2.78        10.93
                                        IF     676.50         2.80         2.78        10.87
                                        IF     701.50         2.73         2.78        10.82
                                        IF     719.00         2.72         2.79        10.81
                                        IF     721.80         0.73         2.79         9.43
                                        IF     722.60         0.01         2.79         8.93
                                        PART3 LOCATION OF AREAS ABOVE 100-YEAR SURGE
                                        NO AREAS ABOVE 100-YEAR SURGE IN THIS TRANSECT
                                                  PART4 LOCATION OF SURGE CHANGES
                                        STATION          10-YEAR SURGE          100-YEAR SURGE
                                        313.00                 1.00                 8.91
                                        573.00                 1.00                 8.91
                                        574.00                 1.00                 8.91
                                        600.00                 1.00                 8.91
                                        721.80                 1.00                 8.92
                                                   PART6 NUMBERED A ZONES AND V ZONES
                                        STATION OF GUTTER  ELEVATION  ZONE DESIGNATION   FHF
                                               0.00          10.87
                                                                          A20  EL=11     100
                                             312.00          10.95
                                                                          A20  EL=11     100
                                             313.00          10.95
                                                                          A20  EL=11     100
                                             433.00          10.92
                                                                          A20  EL=11     100
                                             573.00          10.91
                                                                          A20  EL=11     100
                                             574.00          10.91
                                                                          A20  EL=11     100
                                             599.00          10.91
                                                                          A20  EL=11     100
                                             600.00          10.91
                                                                          A20  EL=11     100
                                             719.00          10.81
                                                                          A20  EL=11     100
                                             719.63          10.50
                                                                          A20  EL=10     100
                                             721.66           9.50
                                                                          A20  EL= 9     100
                                             721.80           9.43
                                                                          A20  EL= 9     100
                                             722.60           8.93
                                                  ZONE TERMINATED AT END OF TRANSECT
                                                  PART 7   POSTSCRIPT NOTES
                         PS#  1   START(423075.7921,4850978.7055)                                              
                         PS#  2   END(423113.1721,4851245.3902)                                                
-1.000000e+00
