 WAVE HEIGHT COMPUTATIONS FOR FLOOD INSURANCE STUDIES (WHAFIS VERSION 4.0G, 08_2007)
 Executed on: Thu Apr  2 11:05:19 2020
 Input file:  C:\FEMA-TransectAnalysis\LOMR-TransectAnalysis-Kennebunkport\3_whafis\whafis4\YK-103.dat                                        
 Output file: C:\FEMA-TransectAnalysis\LOMR-TransectAnalysis-Kennebunkport\3_whafis\whafis4\YK-103.out                                        



                                                              header                                                                
                                                     THIS IS A 100-YEAR CASE


                                       THE FOLLOWING NON-DEFAULT WIND SPEEDS ARE BEING USED
                                            WINDIF  56.14  WINDOF  56.14  WINDVH  60.00

                                                             PART1 INPUT

          IE      0.000    -23.773      1.000      1.000      9.042     29.615     13.840     56.140      0.010      0.000
          OF      3.300    -23.739      0.000      9.045      0.000      0.000      0.000      0.000      0.010      0.000
          OF      6.600    -23.706      0.000      9.047      0.000      0.000      0.000      0.000      0.010      0.000
          OF      9.800    -23.672      0.000      9.049      0.000      0.000      0.000      0.000      0.010      0.000
          OF     13.100    -23.639      0.000      9.052      0.000      0.000      0.000      0.000      0.010      0.000
          OF     16.400    -23.605      0.000      9.054      0.000      0.000      0.000      0.000      0.010      0.000
          OF     19.700    -23.572      0.000      9.057      0.000      0.000      0.000      0.000      0.010      0.000
          OF     23.000    -23.538      0.000      9.059      0.000      0.000      0.000      0.000      0.010      0.000
          OF     26.200    -23.505      0.000      9.062      0.000      0.000      0.000      0.000      0.010      0.000
          OF     29.500    -23.471      0.000      9.064      0.000      0.000      0.000      0.000      0.010      0.000
          OF     32.800    -23.437      0.000      9.067      0.000      0.000      0.000      0.000      0.010      0.000
          OF     36.100    -23.404      0.000      9.070      0.000      0.000      0.000      0.000      0.010      0.000
          OF     39.400    -23.370      0.000      9.072      0.000      0.000      0.000      0.000      0.010      0.000
          OF     42.700    -23.337      0.000      9.075      0.000      0.000      0.000      0.000      0.010      0.000
          OF     45.900    -23.303      0.000      9.078      0.000      0.000      0.000      0.000      0.010      0.000
          OF     49.200    -23.270      0.000      9.081      0.000      0.000      0.000      0.000      0.010      0.000
          OF     52.500    -23.236      0.000      9.083      0.000      0.000      0.000      0.000      0.010      0.000
          OF     55.800    -23.203      0.000      9.086      0.000      0.000      0.000      0.000      0.013      0.000
          OF     59.100    -23.151      0.000      9.089      0.000      0.000      0.000      0.000      0.019      0.000
          OF     62.300    -23.077      0.000      9.091      0.000      0.000      0.000      0.000      0.023      0.000
          OF     65.600    -23.003      0.000      9.094      0.000      0.000      0.000      0.000      0.022      0.000
          OF     68.900    -22.929      0.000      9.096      0.000      0.000      0.000      0.000      0.022      0.000
          OF     72.200    -22.856      0.000      9.098      0.000      0.000      0.000      0.000      0.022      0.000
          OF     75.500    -22.782      0.000      9.101      0.000      0.000      0.000      0.000      0.023      0.000
          OF     78.700    -22.708      0.000      9.104      0.000      0.000      0.000      0.000      0.023      0.000
          OF     82.000    -22.634      0.000      9.106      0.000      0.000      0.000      0.000      0.022      0.000
          OF     85.300    -22.560      0.000      9.108      0.000      0.000      0.000      0.000      0.022      0.000
          OF     88.600    -22.486      0.000      9.111      0.000      0.000      0.000      0.000      0.022      0.000
          OF     91.900    -22.412      0.000      9.114      0.000      0.000      0.000      0.000      0.023      0.000
          OF     95.100    -22.339      0.000      9.116      0.000      0.000      0.000      0.000      0.023      0.000
          OF     98.400    -22.265      0.000      9.119      0.000      0.000      0.000      0.000      0.022      0.000
          OF    101.700    -22.191      0.000      9.121      0.000      0.000      0.000      0.000      0.022      0.000
          OF    105.000    -22.117      0.000      9.124      0.000      0.000      0.000      0.000      0.022      0.000
          OF    108.300    -22.043      0.000      9.127      0.000      0.000      0.000      0.000      0.023      0.000
          OF    111.500    -21.969      0.000      9.129      0.000      0.000      0.000      0.000      0.023      0.000
          OF    114.800    -21.893      0.000      9.132      0.000      0.000      0.000      0.000      0.025      0.000
          OF    118.100    -21.806      0.000      9.134      0.000      0.000      0.000      0.000      0.026      0.000
          OF    121.400    -21.719      0.000      9.137      0.000      0.000      0.000      0.000      0.026      0.000
          OF    124.700    -21.632      0.000      9.140      0.000      0.000      0.000      0.000      0.026      0.000
          OF    128.000    -21.545      0.000      9.142      0.000      0.000      0.000      0.000      0.027      0.000
          OF    131.200    -21.458      0.000      9.145      0.000      0.000      0.000      0.000      0.027      0.000
          OF    134.500    -21.370      0.000      9.148      0.000      0.000      0.000      0.000      0.026      0.000
          OF    137.800    -21.283      0.000      9.150      0.000      0.000      0.000      0.000      0.026      0.000
          OF    141.100    -21.196      0.000      9.153      0.000      0.000      0.000      0.000      0.026      0.000
          OF    144.400    -21.109      0.000      9.156      0.000      0.000      0.000      0.000      0.027      0.000
          OF    147.600    -21.022      0.000      9.158      0.000      0.000      0.000      0.000      0.027      0.000
          OF    150.900    -20.935      0.000      9.161      0.000      0.000      0.000      0.000      0.026      0.000
          OF    154.200    -20.848      0.000      9.164      0.000      0.000      0.000      0.000      0.026      0.000
          OF    157.500    -20.761      0.000      9.167      0.000      0.000      0.000      0.000      0.026      0.000
          OF    160.800    -20.674      0.000      9.170      0.000      0.000      0.000      0.000      0.027      0.000
          OF    164.000    -20.587      0.000      9.172      0.000      0.000      0.000      0.000      0.027      0.000
          OF    167.300    -20.500      0.000      9.175      0.000      0.000      0.000      0.000      0.026      0.000
          OF    170.600    -20.413      0.000      9.178      0.000      0.000      0.000      0.000      0.026      0.000
          OF    173.900    -20.326      0.000      9.181      0.000      0.000      0.000      0.000      0.026      0.000
          OF    177.200    -20.239      0.000      9.183      0.000      0.000      0.000      0.000      0.027      0.000
          OF    180.400    -20.152      0.000      9.186      0.000      0.000      0.000      0.000      0.027      0.000
          OF    183.700    -20.064      0.000      9.189      0.000      0.000      0.000      0.000      0.030      0.000
          OF    187.000    -19.956      0.000      9.191      0.000      0.000      0.000      0.000      0.038      0.000
          OF    190.300    -19.811      0.000      9.194      0.000      0.000      0.000      0.000      0.044      0.000
          OF    193.600    -19.667      0.000      9.196      0.000      0.000      0.000      0.000      0.045      0.000
          OF    196.800    -19.522      0.000      9.198      0.000      0.000      0.000      0.000      0.045      0.000
          OF    200.100    -19.378      0.000      9.201      0.000      0.000      0.000      0.000      0.044      0.000
          OF    203.400    -19.233      0.000      9.203      0.000      0.000      0.000      0.000      0.044      0.000
          OF    206.700    -19.089      0.000      9.206      0.000      0.000      0.000      0.000      0.044      0.000
          OF    210.000    -18.944      0.000      9.208      0.000      0.000      0.000      0.000      0.044      0.000
          OF    213.300    -18.800      0.000      9.211      0.000      0.000      0.000      0.000      0.045      0.000
          OF    216.500    -18.655      0.000      9.214      0.000      0.000      0.000      0.000      0.045      0.000
          OF    219.800    -18.511      0.000      9.216      0.000      0.000      0.000      0.000      0.044      0.000
          OF    223.100    -18.366      0.000      9.219      0.000      0.000      0.000      0.000      0.044      0.000
          OF    226.400    -18.222      0.000      9.222      0.000      0.000      0.000      0.000      0.044      0.000
          OF    229.700    -18.077      0.000      9.225      0.000      0.000      0.000      0.000      0.045      0.000
          OF    232.900    -17.933      0.000      9.228      0.000      0.000      0.000      0.000      0.045      0.000
          OF    236.200    -17.788      0.000      9.231      0.000      0.000      0.000      0.000      0.044      0.000
          OF    239.500    -17.644      0.000      9.234      0.000      0.000      0.000      0.000      0.044      0.000
          OF    242.800    -17.499      0.000      9.237      0.000      0.000      0.000      0.000      0.044      0.000
          OF    246.100    -17.355      0.000      9.240      0.000      0.000      0.000      0.000      0.045      0.000
          OF    249.300    -17.210      0.000      9.243      0.000      0.000      0.000      0.000      0.045      0.000
          OF    252.600    -17.066      0.000      9.247      0.000      0.000      0.000      0.000      0.044      0.000
          OF    255.900    -16.921      0.000      9.250      0.000      0.000      0.000      0.000      0.044      0.000
          OF    259.200    -16.777      0.000      9.253      0.000      0.000      0.000      0.000      0.044      0.000
          OF    262.500    -16.632      0.000      9.257      0.000      0.000      0.000      0.000      0.045      0.000
          OF    265.700    -16.488      0.000      9.260      0.000      0.000      0.000      0.000      0.045      0.000
          OF    269.000    -16.343      0.000      9.263      0.000      0.000      0.000      0.000      0.044      0.000
          OF    272.300    -16.199      0.000      9.267      0.000      0.000      0.000      0.000      0.044      0.000
          OF    275.600    -16.054      0.000      9.270      0.000      0.000      0.000      0.000      0.044      0.000
          OF    278.900    -15.910      0.000      9.274      0.000      0.000      0.000      0.000      0.043      0.000
          OF    282.200    -15.772      0.000      9.277      0.000      0.000      0.000      0.000      0.042      0.000
          OF    285.400    -15.638      0.000      9.281      0.000      0.000      0.000      0.000      0.041      0.000
          OF    288.700    -15.503      0.000      9.285      0.000      0.000      0.000      0.000      0.041      0.000
          OF    292.000    -15.368      0.000      9.289      0.000      0.000      0.000      0.000      0.041      0.000
          OF    295.300    -15.234      0.000      9.292      0.000      0.000      0.000      0.000      0.041      0.000
          OF    298.600    -15.099      0.000      9.296      0.000      0.000      0.000      0.000      0.041      0.000
          OF    301.800    -14.964      0.000      9.299      0.000      0.000      0.000      0.000      0.041      0.000
          OF    305.100    -14.830      0.000      9.303      0.000      0.000      0.000      0.000      0.041      0.000
          OF    308.400    -14.695      0.000      9.307      0.000      0.000      0.000      0.000      0.045      0.000
          OF    311.700    -14.536      0.000      9.310      0.000      0.000      0.000      0.000      0.052      0.000
          OF    315.000    -14.351      0.000      9.313      0.000      0.000      0.000      0.000      0.057      0.000
          OF    318.200    -14.166      0.000      9.316      0.000      0.000      0.000      0.000      0.057      0.000
          OF    321.500    -13.982      0.000      9.319      0.000      0.000      0.000      0.000      0.056      0.000
          OF    324.800    -13.797      0.000      9.323      0.000      0.000      0.000      0.000      0.056      0.000
          OF    328.100    -13.612      0.000      9.327      0.000      0.000      0.000      0.000      0.056      0.000
          OF    331.400    -13.427      0.000      9.330      0.000      0.000      0.000      0.000      0.055      0.000
          OF    334.600    -13.254      0.000      9.335      0.000      0.000      0.000      0.000      0.048      0.000
          OF    337.900    -13.113      0.000      9.339      0.000      0.000      0.000      0.000      0.043      0.000
          OF    341.200    -12.973      0.000      9.344      0.000      0.000      0.000      0.000      0.043      0.000
          OF    344.500    -12.832      0.000      9.350      0.000      0.000      0.000      0.000      0.043      0.000
          OF    347.800    -12.692      0.000      9.354      0.000      0.000      0.000      0.000      0.043      0.000
          OF    351.000    -12.551      0.000      9.360      0.000      0.000      0.000      0.000      0.043      0.000
          OF    354.300    -12.411      0.000      9.365      0.000      0.000      0.000      0.000      0.042      0.000
          OF    357.600    -12.271      0.000      9.371      0.000      0.000      0.000      0.000      0.043      0.000
          OF    360.900    -12.130      0.000      9.376      0.000      0.000      0.000      0.000      0.043      0.000
          OF    364.200    -11.990      0.000      9.381      0.000      0.000      0.000      0.000      0.043      0.000
          OF    367.500    -11.849      0.000      9.387      0.000      0.000      0.000      0.000      0.043      0.000
          OF    370.700    -11.709      0.000      9.393      0.000      0.000      0.000      0.000      0.043      0.000
          OF    374.000    -11.569      0.000      9.398      0.000      0.000      0.000      0.000      0.043      0.000
          OF    377.300    -11.428      0.000      9.404      0.000      0.000      0.000      0.000      0.043      0.000
          OF    380.600    -11.288      0.000      9.409      0.000      0.000      0.000      0.000      0.043      0.000
          OF    383.900    -11.147      0.000      9.415      0.000      0.000      0.000      0.000      0.043      0.000
          OF    387.100    -11.007      0.000      9.421      0.000      0.000      0.000      0.000      0.043      0.000
          OF    390.400    -10.867      0.000      9.427      0.000      0.000      0.000      0.000      0.043      0.000
          OF    393.700    -10.726      0.000      9.433      0.000      0.000      0.000      0.000      0.043      0.000
          OF    397.000    -10.586      0.000      9.439      0.000      0.000      0.000      0.000      0.043      0.000
          OF    400.300    -10.445      0.000      9.445      0.000      0.000      0.000      0.000      0.043      0.000
          OF    403.500    -10.305      0.000      9.451      0.000      0.000      0.000      0.000      0.043      0.000
          OF    406.800    -10.164      0.000      9.457      0.000      0.000      0.000      0.000      0.043      0.000
          OF    410.100    -10.024      0.000      9.463      0.000      0.000      0.000      0.000      0.042      0.000
          OF    413.400     -9.884      0.000      9.469      0.000      0.000      0.000      0.000      0.043      0.000
          OF    416.700     -9.744      0.000      9.476      0.000      0.000      0.000      0.000      0.043      0.000
          OF    419.900     -9.603      0.000      9.482      0.000      0.000      0.000      0.000      0.043      0.000
          OF    423.200     -9.463      0.000      9.489      0.000      0.000      0.000      0.000      0.043      0.000
          OF    426.500     -9.322      0.000      9.495      0.000      0.000      0.000      0.000      0.040      0.000
          OF    429.800     -9.200      0.000      9.502      0.000      0.000      0.000      0.000      0.030      0.000
          OF    433.100     -9.122      0.000      9.510      0.000      0.000      0.000      0.000      0.024      0.000
          OF    436.400     -9.043      0.000      9.517      0.000      0.000      0.000      0.000      0.024      0.000
          OF    439.600     -8.964      0.000      9.525      0.000      0.000      0.000      0.000      0.024      0.000
          OF    442.900     -8.885      0.000      9.533      0.000      0.000      0.000      0.000      0.024      0.000
          OF    446.200     -8.806      0.000      9.540      0.000      0.000      0.000      0.000      0.024      0.000
          OF    449.500     -8.727      0.000      9.548      0.000      0.000      0.000      0.000      0.024      0.000
          OF    452.800     -8.648      0.000      9.555      0.000      0.000      0.000      0.000      0.024      0.000
          OF    456.000     -8.569      0.000      9.562      0.000      0.000      0.000      0.000      0.024      0.000
          OF    459.300     -8.491      0.000      9.569      0.000      0.000      0.000      0.000      0.024      0.000
          OF    462.600     -8.412      0.000      9.576      0.000      0.000      0.000      0.000      0.024      0.000
          OF    465.900     -8.333      0.000      9.583      0.000      0.000      0.000      0.000      0.024      0.000
          OF    469.200     -8.254      0.000      9.590      0.000      0.000      0.000      0.000      0.024      0.000
          OF    472.400     -8.175      0.000      9.597      0.000      0.000      0.000      0.000      0.024      0.000
          OF    475.700     -8.096      0.000      9.603      0.000      0.000      0.000      0.000      0.024      0.000
          OF    479.000     -8.017      0.000      9.610      0.000      0.000      0.000      0.000      0.024      0.000
          OF    482.300     -7.938      0.000      9.617      0.000      0.000      0.000      0.000      0.024      0.000
          OF    485.600     -7.860      0.000      9.623      0.000      0.000      0.000      0.000      0.024      0.000
          OF    488.800     -7.781      0.000      9.629      0.000      0.000      0.000      0.000      0.024      0.000
          OF    492.100     -7.702      0.000      9.635      0.000      0.000      0.000      0.000      0.024      0.000
          OF    495.400     -7.623      0.000      9.642      0.000      0.000      0.000      0.000      0.024      0.000
          OF    498.700     -7.544      0.000      9.648      0.000      0.000      0.000      0.000      0.024      0.000
          OF    502.000     -7.465      0.000      9.654      0.000      0.000      0.000      0.000      0.024      0.000
          OF    505.200     -7.386      0.000      9.660      0.000      0.000      0.000      0.000      0.024      0.000
          OF    508.500     -7.307      0.000      9.666      0.000      0.000      0.000      0.000      0.024      0.000
          OF    511.800     -7.228      0.000      9.672      0.000      0.000      0.000      0.000      0.024      0.000
          OF    515.100     -7.150      0.000      9.678      0.000      0.000      0.000      0.000      0.024      0.000
          OF    518.400     -7.071      0.000      9.684      0.000      0.000      0.000      0.000      0.024      0.000
          OF    521.700     -6.992      0.000      9.689      0.000      0.000      0.000      0.000      0.024      0.000
          OF    524.900     -6.912      0.000      9.695      0.000      0.000      0.000      0.000      0.026      0.000
          OF    528.200     -6.826      0.000      9.700      0.000      0.000      0.000      0.000      0.026      0.000
          OF    531.500     -6.739      0.000      9.706      0.000      0.000      0.000      0.000      0.026      0.000
          OF    534.800     -6.653      0.000      9.711      0.000      0.000      0.000      0.000      0.026      0.000
          OF    538.100     -6.567      0.000      9.716      0.000      0.000      0.000      0.000      0.026      0.000
          OF    541.300     -6.481      0.000      9.722      0.000      0.000      0.000      0.000      0.025      0.000
          OF    544.600     -6.406      0.000      9.727      0.000      0.000      0.000      0.000      0.012      0.000
          OF    547.900     -6.400      0.000      9.733      0.000      0.000      0.000      0.000      0.001      0.000
          OF    551.200     -6.397      0.000      9.740      0.000      0.000      0.000      0.000      0.001      0.000
          OF    554.500     -6.394      0.000      9.745      0.000      0.000      0.000      0.000      0.001      0.000
          OF    557.700     -6.391      0.000      9.751      0.000      0.000      0.000      0.000      0.001      0.000
          OF    561.000     -6.387      0.000      9.756      0.000      0.000      0.000      0.000      0.001      0.000
          OF    564.300     -6.385      0.000      9.762      0.000      0.000      0.000      0.000      0.001      0.000
          OF    567.600     -6.381      0.000      9.767      0.000      0.000      0.000      0.000      0.001      0.000
          OF    570.900     -6.378      0.000      9.772      0.000      0.000      0.000      0.000      0.001      0.000
          OF    574.100     -6.375      0.000      9.776      0.000      0.000      0.000      0.000      0.001      0.000
          OF    577.400     -6.372      0.000      9.781      0.000      0.000      0.000      0.000      0.002      0.000
          OF    580.700     -6.365      0.000      9.785      0.000      0.000      0.000      0.000      0.004      0.000
          OF    584.000     -6.347      0.000      9.789      0.000      0.000      0.000      0.000      0.005      0.000
          OF    587.300     -6.329      0.000      9.793      0.000      0.000      0.000      0.000      0.005      0.000
          OF    590.500     -6.311      0.000      9.797      0.000      0.000      0.000      0.000      0.005      0.000
          OF    593.800     -6.293      0.000      9.801      0.000      0.000      0.000      0.000      0.005      0.000
          OF    597.100     -6.275      0.000      9.805      0.000      0.000      0.000      0.000      0.005      0.000
          OF    600.400     -6.257      0.000      9.808      0.000      0.000      0.000      0.000      0.005      0.000
          OF    603.700     -6.240      0.000      9.812      0.000      0.000      0.000      0.000      0.005      0.000
          OF    607.000     -6.222      0.000      9.815      0.000      0.000      0.000      0.000      0.005      0.000
          OF    610.200     -6.204      0.000      9.818      0.000      0.000      0.000      0.000      0.005      0.000
          OF    613.500     -6.186      0.000      9.821      0.000      0.000      0.000      0.000      0.005      0.000
          OF    616.800     -6.168      0.000      9.825      0.000      0.000      0.000      0.000      0.005      0.000
          OF    620.100     -6.150      0.000      9.827      0.000      0.000      0.000      0.000      0.005      0.000
          OF    623.400     -6.133      0.000      9.831      0.000      0.000      0.000      0.000      0.005      0.000
          OF    626.600     -6.115      0.000      9.833      0.000      0.000      0.000      0.000      0.005      0.000
          OF    629.900     -6.097      0.000      9.836      0.000      0.000      0.000      0.000      0.005      0.000
          OF    633.200     -6.079      0.000      9.839      0.000      0.000      0.000      0.000      0.005      0.000
          OF    636.500     -6.061      0.000      9.842      0.000      0.000      0.000      0.000      0.005      0.000
          OF    639.800     -6.043      0.000      9.844      0.000      0.000      0.000      0.000      0.005      0.000
          OF    643.000     -6.025      0.000      9.847      0.000      0.000      0.000      0.000      0.005      0.000
          OF    646.300     -6.008      0.000      9.849      0.000      0.000      0.000      0.000      0.005      0.000
          OF    649.600     -5.990      0.000      9.852      0.000      0.000      0.000      0.000      0.005      0.000
          OF    652.900     -5.972      0.000      9.854      0.000      0.000      0.000      0.000      0.001      0.000
          OF    656.200     -5.982      0.000      9.857      0.000      0.000      0.000      0.000     -0.004      0.000
          OF    659.400     -5.996      0.000      9.859      0.000      0.000      0.000      0.000     -0.004      0.000
          OF    662.700     -6.009      0.000      9.862      0.000      0.000      0.000      0.000     -0.004      0.000
          OF    666.000     -6.023      0.000      9.865      0.000      0.000      0.000      0.000     -0.004      0.000
          OF    669.300     -6.036      0.000      9.867      0.000      0.000      0.000      0.000     -0.004      0.000
          OF    672.600     -6.049      0.000      9.869      0.000      0.000      0.000      0.000     -0.004      0.000
          OF    675.900     -6.063      0.000      9.872      0.000      0.000      0.000      0.000     -0.004      0.000
          OF    679.100     -6.076      0.000      9.874      0.000      0.000      0.000      0.000     -0.004      0.000
          OF    682.400     -6.090      0.000      9.876      0.000      0.000      0.000      0.000     -0.004      0.000
          OF    685.700     -6.103      0.000      9.878      0.000      0.000      0.000      0.000     -0.004      0.000
          OF    689.000     -6.116      0.000      9.880      0.000      0.000      0.000      0.000     -0.004      0.000
          OF    692.300     -6.130      0.000      9.882      0.000      0.000      0.000      0.000     -0.004      0.000
          OF    695.500     -6.143      0.000      9.884      0.000      0.000      0.000      0.000     -0.004      0.000
          OF    698.800     -6.157      0.000      9.886      0.000      0.000      0.000      0.000     -0.004      0.000
          OF    702.100     -6.170      0.000      9.888      0.000      0.000      0.000      0.000      0.004      0.000
          OF    705.400     -6.127      0.000      9.889      0.000      0.000      0.000      0.000      0.017      0.000
          OF    708.700     -6.056      0.000      9.890      0.000      0.000      0.000      0.000      0.022      0.000
          OF    711.900     -5.985      0.000      9.891      0.000      0.000      0.000      0.000      0.022      0.000
          OF    715.200     -5.914      0.000      9.892      0.000      0.000      0.000      0.000      0.022      0.000
          OF    718.500     -5.844      0.000      9.893      0.000      0.000      0.000      0.000      0.022      0.000
          OF    721.800     -5.773      0.000      9.894      0.000      0.000      0.000      0.000      0.022      0.000
          OF    725.100     -5.702      0.000      9.895      0.000      0.000      0.000      0.000      0.022      0.000
          OF    728.300     -5.631      0.000      9.896      0.000      0.000      0.000      0.000      0.022      0.000
          OF    731.600     -5.560      0.000      9.898      0.000      0.000      0.000      0.000      0.022      0.000
          OF    734.900     -5.489      0.000      9.899      0.000      0.000      0.000      0.000      0.022      0.000
          OF    738.200     -5.418      0.000      9.900      0.000      0.000      0.000      0.000      0.022      0.000
          OF    741.500     -5.347      0.000      9.901      0.000      0.000      0.000      0.000      0.022      0.000
          OF    744.700     -5.276      0.000      9.903      0.000      0.000      0.000      0.000      0.022      0.000
          OF    748.000     -5.205      0.000      9.904      0.000      0.000      0.000      0.000      0.022      0.000
          OF    751.300     -5.134      0.000      9.905      0.000      0.000      0.000      0.000      0.022      0.000
          OF    754.600     -5.063      0.000      9.907      0.000      0.000      0.000      0.000      0.022      0.000
          OF    757.900     -4.992      0.000      9.908      0.000      0.000      0.000      0.000      0.020      0.000
          OF    761.200     -4.934      0.000      9.910      0.000      0.000      0.000      0.000      0.000      0.000
          OF    764.400     -4.992      0.000      9.912      0.000      0.000      0.000      0.000     -0.018      0.000
          OF    767.700     -5.049      0.000      9.915      0.000      0.000      0.000      0.000     -0.017      0.000
          OF    771.000     -5.107      0.000      9.917      0.000      0.000      0.000      0.000     -0.017      0.000
          OF    774.300     -5.164      0.000      9.919      0.000      0.000      0.000      0.000     -0.018      0.000
          OF    777.600     -5.222      0.000      9.922      0.000      0.000      0.000      0.000     -0.018      0.000
          OF    780.800     -5.280      0.000      9.924      0.000      0.000      0.000      0.000     -0.018      0.000
          OF    784.100     -5.337      0.000      9.925      0.000      0.000      0.000      0.000     -0.017      0.000
          OF    787.400     -5.395      0.000      9.927      0.000      0.000      0.000      0.000     -0.018      0.000
          OF    790.700     -5.452      0.000      9.929      0.000      0.000      0.000      0.000     -0.018      0.000
          OF    794.000     -5.510      0.000      9.931      0.000      0.000      0.000      0.000     -0.018      0.000
          OF    797.200     -5.567      0.000      9.932      0.000      0.000      0.000      0.000     -0.018      0.000
          OF    800.500     -5.625      0.000      9.934      0.000      0.000      0.000      0.000     -0.018      0.000
          OF    803.800     -5.683      0.000      9.936      0.000      0.000      0.000      0.000     -0.018      0.000
          OF    807.100     -5.740      0.000      9.937      0.000      0.000      0.000      0.000     -0.017      0.000
          OF    810.400     -5.798      0.000      9.939      0.000      0.000      0.000      0.000     -0.018      0.000
          OF    813.600     -5.855      0.000      9.940      0.000      0.000      0.000      0.000     -0.018      0.000
          OF    816.900     -5.913      0.000      9.941      0.000      0.000      0.000      0.000     -0.014      0.000
          OF    820.200     -5.951      0.000      9.942      0.000      0.000      0.000      0.000     -0.005      0.000
          OF    823.500     -5.944      0.000      9.943      0.000      0.000      0.000      0.000      0.002      0.000
          OF    826.800     -5.938      0.000      9.944      0.000      0.000      0.000      0.000      0.002      0.000
          OF    830.100     -5.932      0.000      9.944      0.000      0.000      0.000      0.000      0.002      0.000
          OF    833.300     -5.926      0.000      9.945      0.000      0.000      0.000      0.000      0.002      0.000
          OF    836.600     -5.920      0.000      9.946      0.000      0.000      0.000      0.000      0.002      0.000
          OF    839.900     -5.913      0.000      9.947      0.000      0.000      0.000      0.000      0.002      0.000
          OF    843.200     -5.907      0.000      9.948      0.000      0.000      0.000      0.000      0.002      0.000
          OF    846.500     -5.901      0.000      9.948      0.000      0.000      0.000      0.000      0.002      0.000
          OF    849.700     -5.895      0.000      9.949      0.000      0.000      0.000      0.000      0.002      0.000
          OF    853.000     -5.888      0.000      9.950      0.000      0.000      0.000      0.000      0.002      0.000
          OF    856.300     -5.882      0.000      9.950      0.000      0.000      0.000      0.000      0.002      0.000
          OF    859.600     -5.876      0.000      9.951      0.000      0.000      0.000      0.000      0.005      0.000
          OF    862.900     -5.849      0.000      9.952      0.000      0.000      0.000      0.000      0.011      0.000
          OF    866.100     -5.802      0.000      9.952      0.000      0.000      0.000      0.000      0.014      0.000
          OF    869.400     -5.755      0.000      9.952      0.000      0.000      0.000      0.000      0.014      0.000
          OF    872.700     -5.708      0.000      9.953      0.000      0.000      0.000      0.000      0.014      0.000
          OF    876.000     -5.661      0.000      9.953      0.000      0.000      0.000      0.000      0.014      0.000
          OF    879.300     -5.614      0.000      9.954      0.000      0.000      0.000      0.000      0.014      0.000
          OF    882.500     -5.567      0.000      9.954      0.000      0.000      0.000      0.000      0.014      0.000
          OF    885.800     -5.519      0.000      9.955      0.000      0.000      0.000      0.000      0.014      0.000
          OF    889.100     -5.472      0.000      9.955      0.000      0.000      0.000      0.000      0.014      0.000
          OF    892.400     -5.425      0.000      9.956      0.000      0.000      0.000      0.000      0.014      0.000
          OF    895.700     -5.378      0.000      9.956      0.000      0.000      0.000      0.000      0.014      0.000
          OF    898.900     -5.331      0.000      9.957      0.000      0.000      0.000      0.000      0.026      0.000
          OF    902.200     -5.208      0.000      9.957      0.000      0.000      0.000      0.000      0.039      0.000
          OF    905.500     -5.073      0.000      9.957      0.000      0.000      0.000      0.000      0.041      0.000
          OF    908.800     -4.938      0.000      9.957      0.000      0.000      0.000      0.000      0.041      0.000
          OF    912.100     -4.802      0.000      9.957      0.000      0.000      0.000      0.000      0.041      0.000
          OF    915.400     -4.667      0.000      9.957      0.000      0.000      0.000      0.000      0.042      0.000
          OF    918.600     -4.531      0.000      9.957      0.000      0.000      0.000      0.000      0.042      0.000
          OF    921.900     -4.396      0.000      9.957      0.000      0.000      0.000      0.000      0.041      0.000
          OF    925.200     -4.260      0.000      9.957      0.000      0.000      0.000      0.000      0.041      0.000
          OF    928.500     -4.125      0.000      9.958      0.000      0.000      0.000      0.000      0.041      0.000
          OF    931.800     -3.990      0.000      9.958      0.000      0.000      0.000      0.000      0.042      0.000
          OF    935.000     -3.854      0.000      9.958      0.000      0.000      0.000      0.000      0.042      0.000
          OF    938.300     -3.719      0.000      9.959      0.000      0.000      0.000      0.000      0.041      0.000
          OF    941.600     -3.583      0.000      9.960      0.000      0.000      0.000      0.000      0.041      0.000
          OF    944.900     -3.448      0.000      9.960      0.000      0.000      0.000      0.000      0.041      0.000
          OF    948.200     -3.312      0.000      9.961      0.000      0.000      0.000      0.000      0.042      0.000
          OF    951.400     -3.177      0.000      9.962      0.000      0.000      0.000      0.000      0.042      0.000
          OF    954.700     -3.041      0.000      9.963      0.000      0.000      0.000      0.000      0.041      0.000
          OF    958.000     -2.906      0.000      9.964      0.000      0.000      0.000      0.000      0.039      0.000
          OF    961.300     -2.782      0.000      9.965      0.000      0.000      0.000      0.000      0.028      0.000
          OF    964.600     -2.720      0.000      9.968      0.000      0.000      0.000      0.000      0.019      0.000
          OF    967.800     -2.659      0.000      9.970      0.000      0.000      0.000      0.000      0.019      0.000
          OF    971.100     -2.598      0.000      9.972      0.000      0.000      0.000      0.000      0.019      0.000
          OF    974.400     -2.536      0.000      9.974      0.000      0.000      0.000      0.000      0.019      0.000
          OF    977.700     -2.475      0.000      9.976      0.000      0.000      0.000      0.000      0.019      0.000
          OF    981.000     -2.414      0.000      9.978      0.000      0.000      0.000      0.000      0.019      0.000
          OF    984.200     -2.352      0.000      9.980      0.000      0.000      0.000      0.000      0.019      0.000
          OF    987.500     -2.291      0.000      9.982      0.000      0.000      0.000      0.000      0.019      0.000
          OF    990.800     -2.230      0.000      9.984      0.000      0.000      0.000      0.000      0.019      0.000
          OF    994.100     -2.168      0.000      9.986      0.000      0.000      0.000      0.000      0.019      0.000
          OF    997.400     -2.107      0.000      9.988      0.000      0.000      0.000      0.000      0.019      0.000
          OF   1000.700     -2.045      0.000      9.990      0.000      0.000      0.000      0.000      0.019      0.000
          OF   1003.900     -1.984      0.000      9.992      0.000      0.000      0.000      0.000      0.019      0.000
          OF   1007.200     -1.923      0.000      9.995      0.000      0.000      0.000      0.000      0.019      0.000
          OF   1010.500     -1.861      0.000      9.997      0.000      0.000      0.000      0.000      0.019      0.000
          OF   1013.800     -1.800      0.000      9.999      0.000      0.000      0.000      0.000      0.019      0.000
          OF   1017.100     -1.738      0.000     10.001      0.000      0.000      0.000      0.000      0.019      0.000
          OF   1020.300     -1.677      0.000     10.003      0.000      0.000      0.000      0.000      0.019      0.000
          OF   1023.600     -1.616      0.000     10.005      0.000      0.000      0.000      0.000      0.019      0.000
          OF   1026.900     -1.554      0.000     10.007      0.000      0.000      0.000      0.000      0.019      0.000
          OF   1030.200     -1.493      0.000     10.010      0.000      0.000      0.000      0.000      0.019      0.000
          OF   1033.500     -1.432      0.000     10.012      0.000      0.000      0.000      0.000      0.021      0.000
          OF   1036.700     -1.359      0.000     10.014      0.000      0.000      0.000      0.000      0.026      0.000
          OF   1040.000     -1.261      0.000     10.016      0.000      0.000      0.000      0.000      0.034      0.000
          OF   1043.300     -1.131      0.000     10.017      0.000      0.000      0.000      0.000      0.039      0.000
          OF   1046.600     -1.001      0.000     10.019      0.000      0.000      0.000      0.000      0.039      0.000
          OF   1049.900     -0.872      0.000     10.021      0.000      0.000      0.000      0.000      0.040      0.000
          OF   1053.100     -0.742      0.000     10.023      0.000      0.000      0.000      0.000      0.040      0.000
          OF   1056.400     -0.612      0.000     10.025      0.000      0.000      0.000      0.000      0.039      0.000
          OF   1059.700     -0.482      0.000     10.027      0.000      0.000      0.000      0.000      0.039      0.000
          OF   1063.000     -0.352      0.000     10.029      0.000      0.000      0.000      0.000      0.039      0.000
          OF   1066.300     -0.223      0.000     10.032      0.000      0.000      0.000      0.000      0.039      0.000
          OF   1069.600     -0.093      0.000     10.034      0.000      0.000      0.000      0.000      0.032      0.000
          OF   1072.800     -0.017      0.000     10.038      0.000      0.000      0.000      0.000     -0.043      0.000
          OF   1076.100     -0.369      0.000     10.047      0.000      0.000      0.000      0.000      0.016      0.000
          IF   1079.400      0.086      0.000     10.044      0.000      0.000      0.000      0.000      0.228      0.000
          IF   1082.700      1.134      0.000     10.034      0.000      0.000      0.000      0.000      0.298      0.000
          IF   1086.000      2.053      0.000     10.026      0.000      0.000      0.000      0.000      0.235      0.000
          IF   1089.200      2.658      0.000     10.028      0.000      0.000      0.000      0.000      0.186      0.000
          IF   1092.500      3.264      0.000     10.031      0.000      0.000      0.000      0.000      0.043      0.000
          IF   1095.800      2.944      0.000     10.062      0.000      0.000      0.000      0.000     -0.121      0.000
          IF   1099.100      2.465      0.000     10.088      0.000      0.000      0.000      0.000     -0.145      0.000
          IF   1102.400      1.985      0.000     10.107      0.000      0.000      0.000      0.000     -0.126      0.000
          IF   1105.600      1.644      0.000     10.120      0.000      0.000      0.000      0.000     -0.084      0.000
          IF   1108.900      1.441      0.000     10.128      0.000      0.000      0.000      0.000     -0.061      0.000
          IF   1112.200      1.239      0.000     10.135      0.000      0.000      0.000      0.000     -0.066      0.000
          IF   1115.500      1.007      0.000     10.141      0.000      0.000      0.000      0.000     -0.056      0.000
          IF   1118.800      0.871      0.000     10.145      0.000      0.000      0.000      0.000      0.009      0.000
          IF   1122.000      1.066      0.000     10.145      0.000      0.000      0.000      0.000      0.122      0.000
          IF   1125.300      1.661      0.000     10.141      0.000      0.000      0.000      0.000      0.063      0.000
          IF   1128.600      1.479      0.000     10.147      0.000      0.000      0.000      0.000      0.044      0.000
          IF   1131.900      1.952      0.000     10.144      0.000      0.000      0.000      0.000      0.086      0.000
          IF   1135.200      2.043      0.000     10.147      0.000      0.000      0.000      0.000      0.030      0.000
          IF   1138.400      2.146      0.000     10.150      0.000      0.000      0.000      0.000      0.075      0.000
          IF   1141.700      2.533      0.000     10.149      0.000      0.000      0.000      0.000      0.154      0.000
          IF   1145.000      3.160      0.000     10.145      0.000      0.000      0.000      0.000      0.214      0.000
          IF   1148.300      3.945      0.000     10.140      0.000      0.000      0.000      0.000      0.238      0.000
          IF   1151.600      4.730      0.000     10.137      0.000      0.000      0.000      0.000      0.295      0.000
          IF   1154.900      5.892      0.000     10.125      0.000      0.000      0.000      0.000      0.366      0.000
          IF   1158.100      7.111      0.000     10.251      0.000      0.000      0.000      0.000      0.206      0.000
          IF   1161.400      7.229      0.000     10.389      0.000      0.000      0.000      0.000     -0.079      0.000
          IF   1164.700      6.587      0.000     10.402      0.000      0.000      0.000      0.000     -0.133      0.000
          IF   1168.000      6.352      0.000     10.408      0.000      0.000      0.000      0.000     -0.117      0.000
          IF   1171.300      5.815      0.000     10.433      0.000      0.000      0.000      0.000     -0.192      0.000
          IF   1174.500      5.102      0.000     10.454      0.000      0.000      0.000      0.000      0.130      0.000
          IF   1177.800      6.662      0.000     10.433      0.000      0.000      0.000      0.000      0.348      0.000
          IF   1181.100      7.396      0.000     10.463      0.000      0.000      0.000      0.000      0.073      0.000
          IF   1184.400      7.143      0.000     10.503      0.000      0.000      0.000      0.000     -0.077      0.000
          IF   1187.700      6.890      0.000     10.526      0.000      0.000      0.000      0.000     -0.100      0.000
          IF   1190.900      6.492      0.000     10.544      0.000      0.000      0.000      0.000     -0.125      0.000
          IF   1194.200      6.078      0.000     10.555      0.000      0.000      0.000      0.000      0.000      0.000
          IF   1197.500      6.491      0.000     10.553      0.000      0.000      0.000      0.000      0.108      0.000
          IF   1200.800      6.791      0.000     10.554      0.000      0.000      0.000      0.000      0.000      0.000
          IF   1204.100      6.490      0.000     10.565      0.000      0.000      0.000      0.000      0.026      0.000
          IF   1207.300      6.958      0.000     10.563      0.000      0.000      0.000      0.000      0.180      0.000
          IF   1210.600      7.657      0.000     10.558      0.000      0.000      0.000      0.000      0.163      0.000
          IF   1213.900      8.034      0.000     10.580      0.000      0.000      0.000      0.000      0.206      0.000
          IF   1224.800     10.580      0.000     10.580      0.000      0.000      0.000      0.000      0.234      0.000
          AS   1368.600      9.616      0.000      9.616      0.000      0.000      0.000      0.000     -0.038      0.000
          IF   1386.500      8.930      0.000      9.616      0.000      0.000      0.000      0.000     -0.049      0.000
          IF   1394.500      8.340      0.000      9.616      0.000      0.000      0.000      0.000     -0.030      0.000
          IF   1411.500      8.176      0.000      9.616      0.000      0.000      0.000      0.000     -0.011      0.000
          IF   1423.500      8.012      0.000      9.616      0.000      0.000      0.000      0.000     -0.002      0.000
          IF   1438.000      8.117      0.000      9.616      0.000      0.000      0.000      0.000      0.012      0.000
          IF   1456.000      8.386      0.000      9.616      0.000      0.000      0.000      0.000      0.030      0.000
          IF   1487.400      9.616      0.000      9.616      0.000      0.000      0.000      0.000      0.039      0.000
          AS   1488.800      9.617      0.000      9.617      0.000      0.000      0.000      0.000     -0.193      0.000
          IF   1507.000      6.109      0.000      9.617      0.000      0.000      0.000      0.000     -0.130      0.000
          IF   1515.000      6.207      0.000      9.618      0.000      0.000      0.000      0.000      0.005      0.000
          IF   1535.500      6.243      0.000      9.619      0.000      0.000      0.000      0.000     -0.002      0.000
          IF   1562.000      6.109      0.000      9.621      0.000      0.000      0.000      0.000      0.018      0.000
          IF   1571.000      6.896      0.000      9.622      0.000      0.000      0.000      0.000      0.033      0.000
          IF   1588.500      6.995      0.000      9.623      0.000      0.000      0.000      0.000      0.029      0.000
          IF   1621.500      8.340      0.000      9.625      0.000      0.000      0.000      0.000      0.019      0.000
          IF   1644.000      8.054      0.000      9.626      0.000      0.000      0.000      0.000      0.014      0.000
          IF   1663.000      8.911      0.000      9.627      0.000      0.000      0.000      0.000      0.039      0.000
          IF   1669.000      9.039      0.000      9.628      0.000      0.000      0.000      0.000      0.044      0.000
          IF   1679.200      9.628      0.000      9.628      0.000      0.000      0.000      0.000      0.058      0.000
          AS   1693.700      9.629      0.000      9.629      0.000      0.000      0.000      0.000     -0.148      0.000
          IF   1697.000      9.140      0.000      9.629      0.000      0.000      0.000      0.000      0.000      0.000
          IF   1706.400      9.629      0.000      9.629      0.000      0.000      0.000      0.000      0.052      0.000
          AS   1712.400      9.630      0.000      9.630      0.000      0.000      0.000      0.000     -0.039      0.000
          IF   1718.000      9.409      0.000      9.630      0.000      0.000      0.000      0.000     -0.088      0.000
          IF   1736.000      7.552      0.000      9.631      0.000      0.000      0.000      0.000     -0.072      0.000
          IF   1765.000      6.043      0.000      9.632      0.000      0.000      0.000      0.000     -0.032      0.000
          IF   1789.500      5.846      0.000      9.633      0.000      0.000      0.000      0.000      0.044      0.000
          IF   1803.000      7.716      0.000      9.634      0.000      0.000      0.000      0.000     -0.005      0.000
          IF   1841.500      5.584      0.000      9.636      0.000      0.000      0.000      0.000     -0.032      0.000
          IF   1864.500      5.748      0.000      9.636      0.000      0.000      0.000      0.000      0.058      0.000
          IF   1875.500      7.569      0.000      9.636      0.000      0.000      0.000      0.000     -0.014      0.000
          IF   1899.000      5.256      0.000      9.636      0.000      0.000      0.000      0.000     -0.056      0.000
          IF   1907.500      5.781      0.000      9.636      0.000      0.000      0.000      0.000      0.010      0.000
          IF   1931.000      5.584      0.000      9.636      0.000      0.000      0.000      0.000      0.003      0.000
          IF   1940.500      5.879      0.000      9.636      0.000      0.000      0.000      0.000     -0.019      0.000
          IF   1964.000      4.961      0.000      9.636      0.000      0.000      0.000      0.000      0.093      0.000
          IF   1980.900      9.636      0.000      9.636      0.000      0.000      0.000      0.000      0.277      0.000
          AS   2073.800      9.651      0.000      9.651      0.000      0.000      0.000      0.000     -0.066      0.000
          IF   2086.500      8.816      0.000      9.651      0.000      0.000      0.000      0.000     -0.056      0.000
          IF   2104.000      7.969      0.000      9.651      0.000      0.000      0.000      0.000     -0.034      0.000
          IF   2116.500      7.805      0.000      9.651      0.000      0.000      0.000      0.000      0.011      0.000
          IF   2135.000      8.300      0.000      9.651      0.000      0.000      0.000      0.000     -0.035      0.000
          IF   2153.000      6.529      0.000      9.651      0.000      0.000      0.000      0.000      0.005      0.000
          IF   2184.500      8.570      0.000      9.651      0.000      0.000      0.000      0.000      0.048      0.000
          IF   2194.500      8.537      0.000      9.651      0.000      0.000      0.000      0.000      0.008      0.000
          IF   2216.000      8.832      0.000      9.651      0.000      0.000      0.000      0.000     -0.011      0.000
          IF   2225.000      8.209      0.000      9.651      0.000      0.000      0.000      0.000     -0.070      0.000
          IF   2241.000      7.093      0.000      9.651      0.000      0.000      0.000      0.000     -0.035      0.000
          IF   2250.000      7.323      0.000      9.651      0.000      0.000      0.000      0.000      0.013      0.000
          IF   2277.500      7.552      0.000      9.651      0.000      0.000      0.000      0.000      0.013      0.000
          IF   2287.500      7.815      0.000      9.651      0.000      0.000      0.000      0.000      0.053      0.000
          IF   2300.000      8.737      0.000      9.651      0.000      0.000      0.000      0.000      0.067      0.000
          IF   2315.100      9.651      0.000      9.651      0.000      0.000      0.000      0.000      0.060      0.000
          AS   2317.800      9.651      0.000      9.651      0.000      0.000      0.000      0.000     -0.127      0.000
          IF   2324.500      8.799      0.000      9.651      0.000      0.000      0.000      0.000     -0.114      0.000
          IF   2337.000      7.454      0.000      9.652      0.000      0.000      0.000      0.000     -0.071      0.000
          IF   2348.000      7.126      0.000      9.652      0.000      0.000      0.000      0.000     -0.022      0.000
          IF   2365.500      6.831      0.000      9.652      0.000      0.000      0.000      0.000      0.000      0.000
          IF   2386.000      7.126      0.000      9.652      0.000      0.000      0.000      0.000      0.003      0.000
          IF   2391.000      6.896      0.000      9.652      0.000      0.000      0.000      0.000     -0.010      0.000
          IF   2411.000      6.864      0.000      9.652      0.000      0.000      0.000      0.000      0.067      0.000
          IF   2432.200      9.652      0.000      9.652      0.000      0.000      0.000      0.000      0.132      0.000
          AS   2432.600      9.652      0.000      9.652      0.000      0.000      0.000      0.000     -0.434      0.000
          IF   2438.500      7.093      0.000      9.652      0.000      0.000      0.000      0.000     -0.132      0.000
          IF   2444.000      8.143      0.000      9.652      0.000      0.000      0.000      0.000      0.006      0.000
          IF   2470.500      7.290      0.000      9.652      0.000      0.000      0.000      0.000     -0.030      0.000
          IF   2479.500      7.087      0.000      9.652      0.000      0.000      0.000      0.000      0.082      0.000
          IF   2499.300      9.652      0.000      9.652      0.000      0.000      0.000      0.000      0.130      0.000
          AS   3164.000      9.637      0.000      9.637      0.000      0.000      0.000      0.000     -0.063      0.000
          IF   3171.000      9.196      0.000      9.637      0.000      0.000      0.000      0.000     -0.061      0.000
          IF   3183.000      8.474      0.000      9.637      0.000      0.000      0.000      0.000     -0.036      0.000
          IF   3193.500      8.376      0.000      9.637      0.000      0.000      0.000      0.000     -0.007      0.000
          IF   3206.000      8.317      0.000      9.637      0.000      0.000      0.000      0.000      0.000      0.000
          IF   3221.000      8.382      0.000      9.637      0.000      0.000      0.000      0.000     -0.015      0.000
          IF   3238.000      7.848      0.000      9.637      0.000      0.000      0.000      0.000     -0.023      0.000
          IF   3263.500      7.389      0.000      9.637      0.000      0.000      0.000      0.000     -0.014      0.000
          IF   3273.500      7.352      0.000      9.637      0.000      0.000      0.000      0.000      0.006      0.000
          IF   3310.000      7.684      0.000      9.637      0.000      0.000      0.000      0.000     -0.018      0.000
          IF   3318.000      6.568      0.000      9.637      0.000      0.000      0.000      0.000     -0.013      0.000
          IF   3358.000      7.060      0.000      9.637      0.000      0.000      0.000      0.000      0.017      0.000
          IF   3369.500      7.454      0.000      9.637      0.000      0.000      0.000      0.000      0.005      0.000
          IF   3402.000      7.290      0.000      9.637      0.000      0.000      0.000      0.000      0.011      0.000
          IF   3426.500      8.091      0.000      9.637      0.000      0.000      0.000      0.000      0.052      0.000
          IF   3431.000      8.809      0.000      9.637      0.000      0.000      0.000      0.000      0.052      0.000
          IF   3456.400      9.637      0.000      9.637      0.000      0.000      0.000      0.000      0.033      0.000
          AS   3562.600      9.646      0.000      9.646      0.000      0.000      0.000      0.000     -0.163      0.000
          IF   3581.500      6.568      0.000      9.646      0.000      0.000      0.000      0.000     -0.144      0.000
          IF   3592.500      5.354      0.000      9.646      0.000      0.000      0.000      0.000     -0.049      0.000
          IF   3616.000      4.862      0.000      9.646      0.000      0.000      0.000      0.000      0.052      0.000
          IF   3627.500      7.159      0.000      9.646      0.000      0.000      0.000      0.000      0.077      0.000
          IF   3642.000      6.864      0.000      9.646      0.000      0.000      0.000      0.000     -0.002      0.000
          IF   3663.000      7.093      0.000      9.646      0.000      0.000      0.000      0.000     -0.003      0.000
          IF   3684.500      6.729      0.000      9.646      0.000      0.000      0.000      0.000     -0.003      0.000
          IF   3693.000      6.991      0.000      9.646      0.000      0.000      0.000      0.000     -0.003      0.000
          IF   3721.000      6.634      0.000      9.646      0.000      0.000      0.000      0.000      0.011      0.000
          IF   3729.000      7.375      0.000      9.646      0.000      0.000      0.000      0.000      0.049      0.000
          IF   3745.500      7.848      0.000      9.647      0.000      0.000      0.000      0.000      0.001      0.000
          IF   3761.000      7.405      0.000      9.648      0.000      0.000      0.000      0.000     -0.013      0.000
          IF   3771.500      7.507      0.000      9.648      0.000      0.000      0.000      0.000     -0.002      0.000
          IF   3801.000      7.339      0.000      9.649      0.000      0.000      0.000      0.000      0.013      0.000
          IF   3810.500      8.025      0.000      9.649      0.000      0.000      0.000      0.000      0.016      0.000
          IF   3826.000      7.730      0.000      9.650      0.000      0.000      0.000      0.000     -0.001      0.000
          IF   3837.000      7.995      0.000      9.650      0.000      0.000      0.000      0.000      0.031      0.000
          IF   3867.000      8.980      0.000      9.651      0.000      0.000      0.000      0.000      0.021      0.000
          IF   3877.000      8.852      0.000      9.652      0.000      0.000      0.000      0.000      0.033      0.000
          IF   3887.400      9.652      0.000      9.652      0.000      0.000      0.000      0.000      0.077      0.000
          AS   3896.800      9.653      0.000      9.653      0.000      0.000      0.000      0.000     -0.250      0.000
          IF   3911.000      6.099      0.000      9.653      0.000      0.000      0.000      0.000     -0.145      0.000
          IF   3926.500      5.354      0.000      9.653      0.000      0.000      0.000      0.000     -0.016      0.000
          IF   3952.000      5.453      0.000      9.653      0.000      0.000      0.000      0.000      0.006      0.000
          IF   3960.500      5.551      0.000      9.653      0.000      0.000      0.000      0.000      0.030      0.000
          IF   3997.500      6.831      0.000      9.653      0.000      0.000      0.000      0.000      0.048      0.000
          IF   4012.000      8.045      0.000      9.653      0.000      0.000      0.000      0.000     -0.014      0.000
          IF   4022.000      6.490      0.000      9.653      0.000      0.000      0.000      0.000      0.059      0.000
          IF   4039.400      9.654      0.000      9.654      0.000      0.000      0.000      0.000      0.182      0.000
          AS   4247.500      9.653      0.000      9.653      0.000      0.000      0.000      0.000     -0.096      0.000
          IF   4255.500      8.888      0.000      9.653      0.000      0.000      0.000      0.000     -0.068      0.000
          IF   4267.000      8.327      0.000      9.653      0.000      0.000      0.000      0.000      0.010      0.000
          IF   4285.000      9.190      0.000      9.653      0.000      0.000      0.000      0.000      0.011      0.000
          IF   4298.000      8.658      0.000      9.653      0.000      0.000      0.000      0.000     -0.009      0.000
          IF   4307.000      8.986      0.000      9.653      0.000      0.000      0.000      0.000      0.006      0.000
          IF   4320.500      8.793      0.000      9.653      0.000      0.000      0.000      0.000      0.024      0.000
          IF   4335.300      9.653      0.000      9.653      0.000      0.000      0.000      0.000      0.058      0.000
          AS   4377.200      9.653      0.000      9.653      0.000      0.000      0.000      0.000     -0.140      0.000
          IF   4381.000      9.121      0.000      9.653      0.000      0.000      0.000      0.000     -0.024      0.000
          IF   4394.000      9.255      0.000      9.653      0.000      0.000      0.000      0.000     -0.002      0.000
          IF   4408.500      9.055      0.000      9.653      0.000      0.000      0.000      0.000     -0.050      0.000
          IF   4419.000      8.005      0.000      9.653      0.000      0.000      0.000      0.000     -0.088      0.000
          IF   4433.000      6.896      0.000      9.653      0.000      0.000      0.000      0.000     -0.064      0.000
          IF   4446.500      6.240      0.000      9.653      0.000      0.000      0.000      0.000     -0.012      0.000
          IF   4482.000      6.302      0.000      9.653      0.000      0.000      0.000      0.000      0.016      0.000
          IF   4488.000      6.893      0.000      9.653      0.000      0.000      0.000      0.000      0.023      0.000
          IF   4518.000      7.123      0.000      9.653      0.000      0.000      0.000      0.000     -0.010      0.000
          IF   4529.000      6.466      0.000      9.653      0.000      0.000      0.000      0.000     -0.008      0.000
          IF   4558.000      6.798      0.000      9.653      0.000      0.000      0.000      0.000      0.002      0.000
          IF   4567.500      6.532      0.000      9.653      0.000      0.000      0.000      0.000      0.022      0.000
          IF   4603.500      7.815      0.000      9.653      0.000      0.000      0.000      0.000      0.068      0.000
          IF   4613.100      9.653      0.000      9.653      0.000      0.000      0.000      0.000      0.191      0.000
          ET      0.000      0.000      0.000      0.000      0.000      0.000      0.000      0.000      0.000      0.000
1


            END        END      FETCH SURGE ELEV SURGE ELEV    INITIAL    INITIAL                BOTTOM    AVERAGE
        STATION  ELEVATION     LENGTH    10-YEAR   100-YEAR WAVE HEIGHT  W. PERIOD                SLOPE    A-ZONES
  IE      0.000    -23.773      1.000      1.000      9.042     29.615     13.840     56.140      0.010      0.000


            END        END  NEW SURGE  NEW SURGE                                                 BOTTOM    AVERAGE
        STATION  ELEVATION    10-YEAR   100-YEAR                                                  SLOPE    A-ZONES
  OF      3.300    -23.739      0.000      9.045      0.000      0.000      0.000      0.000      0.010      0.000


            END        END  NEW SURGE  NEW SURGE                                                 BOTTOM    AVERAGE
        STATION  ELEVATION    10-YEAR   100-YEAR                                                  SLOPE    A-ZONES
  OF      6.600    -23.706      0.000      9.047      0.000      0.000      0.000      0.000      0.010      0.000


            END        END  NEW SURGE  NEW SURGE                                                 BOTTOM    AVERAGE
        STATION  ELEVATION    10-YEAR   100-YEAR                                                  SLOPE    A-ZONES
  OF      9.800    -23.672      0.000      9.049      0.000      0.000      0.000      0.000      0.010      0.000


            END        END  NEW SURGE  NEW SURGE                                                 BOTTOM    AVERAGE
        STATION  ELEVATION    10-YEAR   100-YEAR                                                  SLOPE    A-ZONES
  OF     13.100    -23.639      0.000      9.052      0.000      0.000      0.000      0.000      0.010      0.000


            END        END  NEW SURGE  NEW SURGE                                                 BOTTOM    AVERAGE
        STATION  ELEVATION    10-YEAR   100-YEAR                                                  SLOPE    A-ZONES
  OF     16.400    -23.605      0.000      9.054      0.000      0.000      0.000      0.000      0.010      0.000


            END        END  NEW SURGE  NEW SURGE                                                 BOTTOM    AVERAGE
        STATION  ELEVATION    10-YEAR   100-YEAR                                                  SLOPE    A-ZONES
  OF     19.700    -23.572      0.000      9.057      0.000      0.000      0.000      0.000      0.010      0.000


            END        END  NEW SURGE  NEW SURGE                                                 BOTTOM    AVERAGE
        STATION  ELEVATION    10-YEAR   100-YEAR                                                  SLOPE    A-ZONES
  OF     23.000    -23.538      0.000      9.059      0.000      0.000      0.000      0.000      0.010      0.000


            END        END  NEW SURGE  NEW SURGE                                                 BOTTOM    AVERAGE
        STATION  ELEVATION    10-YEAR   100-YEAR                                                  SLOPE    A-ZONES
  OF     26.200    -23.505      0.000      9.062      0.000      0.000      0.000      0.000      0.010      0.000


            END        END  NEW SURGE  NEW SURGE                                                 BOTTOM    AVERAGE
        STATION  ELEVATION    10-YEAR   100-YEAR                                                  SLOPE    A-ZONES
  OF     29.500    -23.471      0.000      9.064      0.000      0.000      0.000      0.000      0.010      0.000


            END        END  NEW SURGE  NEW SURGE                                                 BOTTOM    AVERAGE
        STATION  ELEVATION    10-YEAR   100-YEAR                                                  SLOPE    A-ZONES
  OF     32.800    -23.437      0.000      9.067      0.000      0.000      0.000      0.000      0.010      0.000


            END        END  NEW SURGE  NEW SURGE                                                 BOTTOM    AVERAGE
        STATION  ELEVATION    10-YEAR   100-YEAR                                                  SLOPE    A-ZONES
  OF     36.100    -23.404      0.000      9.070      0.000      0.000      0.000      0.000      0.010      0.000


            END        END  NEW SURGE  NEW SURGE                                                 BOTTOM    AVERAGE
        STATION  ELEVATION    10-YEAR   100-YEAR                                                  SLOPE    A-ZONES
  OF     39.400    -23.370      0.000      9.072      0.000      0.000      0.000      0.000      0.010      0.000


            END        END  NEW SURGE  NEW SURGE                                                 BOTTOM    AVERAGE
        STATION  ELEVATION    10-YEAR   100-YEAR                                                  SLOPE    A-ZONES
  OF     42.700    -23.337      0.000      9.075      0.000      0.000      0.000      0.000      0.010      0.000


            END        END  NEW SURGE  NEW SURGE                                                 BOTTOM    AVERAGE
        STATION  ELEVATION    10-YEAR   100-YEAR                                                  SLOPE    A-ZONES
  OF     45.900    -23.303      0.000      9.078      0.000      0.000      0.000      0.000      0.010      0.000


            END        END  NEW SURGE  NEW SURGE                                                 BOTTOM    AVERAGE
        STATION  ELEVATION    10-YEAR   100-YEAR                                                  SLOPE    A-ZONES
  OF     49.200    -23.270      0.000      9.081      0.000      0.000      0.000      0.000      0.010      0.000


            END        END  NEW SURGE  NEW SURGE                                                 BOTTOM    AVERAGE
        STATION  ELEVATION    10-YEAR   100-YEAR                                                  SLOPE    A-ZONES
  OF     52.500    -23.236      0.000      9.083      0.000      0.000      0.000      0.000      0.010      0.000


            END        END  NEW SURGE  NEW SURGE                                                 BOTTOM    AVERAGE
        STATION  ELEVATION    10-YEAR   100-YEAR                                                  SLOPE    A-ZONES
  OF     55.800    -23.203      0.000      9.086      0.000      0.000      0.000      0.000      0.013      0.000


            END        END  NEW SURGE  NEW SURGE                                                 BOTTOM    AVERAGE
        STATION  ELEVATION    10-YEAR   100-YEAR                                                  SLOPE    A-ZONES
  OF     59.100    -23.151      0.000      9.089      0.000      0.000      0.000      0.000      0.019      0.000


            END        END  NEW SURGE  NEW SURGE                                                 BOTTOM    AVERAGE
        STATION  ELEVATION    10-YEAR   100-YEAR                                                  SLOPE    A-ZONES
  OF     62.300    -23.077      0.000      9.091      0.000      0.000      0.000      0.000      0.023      0.000


            END        END  NEW SURGE  NEW SURGE                                                 BOTTOM    AVERAGE
        STATION  ELEVATION    10-YEAR   100-YEAR                                                  SLOPE    A-ZONES
  OF     65.600    -23.003      0.000      9.094      0.000      0.000      0.000      0.000      0.022      0.000


            END        END  NEW SURGE  NEW SURGE                                                 BOTTOM    AVERAGE
        STATION  ELEVATION    10-YEAR   100-YEAR                                                  SLOPE    A-ZONES
  OF     68.900    -22.929      0.000      9.096      0.000      0.000      0.000      0.000      0.022      0.000


            END        END  NEW SURGE  NEW SURGE                                                 BOTTOM    AVERAGE
        STATION  ELEVATION    10-YEAR   100-YEAR                                                  SLOPE    A-ZONES
  OF     72.200    -22.856      0.000      9.098      0.000      0.000      0.000      0.000      0.022      0.000


            END        END  NEW SURGE  NEW SURGE                                                 BOTTOM    AVERAGE
        STATION  ELEVATION    10-YEAR   100-YEAR                                                  SLOPE    A-ZONES
  OF     75.500    -22.782      0.000      9.101      0.000      0.000      0.000      0.000      0.023      0.000


            END        END  NEW SURGE  NEW SURGE                                                 BOTTOM    AVERAGE
        STATION  ELEVATION    10-YEAR   100-YEAR                                                  SLOPE    A-ZONES
  OF     78.700    -22.708      0.000      9.104      0.000      0.000      0.000      0.000      0.023      0.000


            END        END  NEW SURGE  NEW SURGE                                                 BOTTOM    AVERAGE
        STATION  ELEVATION    10-YEAR   100-YEAR                                                  SLOPE    A-ZONES
  OF     82.000    -22.634      0.000      9.106      0.000      0.000      0.000      0.000      0.022      0.000


            END        END  NEW SURGE  NEW SURGE                                                 BOTTOM    AVERAGE
        STATION  ELEVATION    10-YEAR   100-YEAR                                                  SLOPE    A-ZONES
  OF     85.300    -22.560      0.000      9.108      0.000      0.000      0.000      0.000      0.022      0.000


            END        END  NEW SURGE  NEW SURGE                                                 BOTTOM    AVERAGE
        STATION  ELEVATION    10-YEAR   100-YEAR                                                  SLOPE    A-ZONES
  OF     88.600    -22.486      0.000      9.111      0.000      0.000      0.000      0.000      0.022      0.000


            END        END  NEW SURGE  NEW SURGE                                                 BOTTOM    AVERAGE
        STATION  ELEVATION    10-YEAR   100-YEAR                                                  SLOPE    A-ZONES
  OF     91.900    -22.412      0.000      9.114      0.000      0.000      0.000      0.000      0.023      0.000


            END        END  NEW SURGE  NEW SURGE                                                 BOTTOM    AVERAGE
        STATION  ELEVATION    10-YEAR   100-YEAR                                                  SLOPE    A-ZONES
  OF     95.100    -22.339      0.000      9.116      0.000      0.000      0.000      0.000      0.023      0.000


            END        END  NEW SURGE  NEW SURGE                                                 BOTTOM    AVERAGE
        STATION  ELEVATION    10-YEAR   100-YEAR                                                  SLOPE    A-ZONES
  OF     98.400    -22.265      0.000      9.119      0.000      0.000      0.000      0.000      0.022      0.000


            END        END  NEW SURGE  NEW SURGE                                                 BOTTOM    AVERAGE
        STATION  ELEVATION    10-YEAR   100-YEAR                                                  SLOPE    A-ZONES
  OF    101.700    -22.191      0.000      9.121      0.000      0.000      0.000      0.000      0.022      0.000


            END        END  NEW SURGE  NEW SURGE                                                 BOTTOM    AVERAGE
        STATION  ELEVATION    10-YEAR   100-YEAR                                                  SLOPE    A-ZONES
  OF    105.000    -22.117      0.000      9.124      0.000      0.000      0.000      0.000      0.022      0.000


            END        END  NEW SURGE  NEW SURGE                                                 BOTTOM    AVERAGE
        STATION  ELEVATION    10-YEAR   100-YEAR                                                  SLOPE    A-ZONES
  OF    108.300    -22.043      0.000      9.127      0.000      0.000      0.000      0.000      0.023      0.000


            END        END  NEW SURGE  NEW SURGE                                                 BOTTOM    AVERAGE
        STATION  ELEVATION    10-YEAR   100-YEAR                                                  SLOPE    A-ZONES
  OF    111.500    -21.969      0.000      9.129      0.000      0.000      0.000      0.000      0.023      0.000


            END        END  NEW SURGE  NEW SURGE                                                 BOTTOM    AVERAGE
        STATION  ELEVATION    10-YEAR   100-YEAR                                                  SLOPE    A-ZONES
  OF    114.800    -21.893      0.000      9.132      0.000      0.000      0.000      0.000      0.025      0.000


            END        END  NEW SURGE  NEW SURGE                                                 BOTTOM    AVERAGE
        STATION  ELEVATION    10-YEAR   100-YEAR                                                  SLOPE    A-ZONES
  OF    118.100    -21.806      0.000      9.134      0.000      0.000      0.000      0.000      0.026      0.000


            END        END  NEW SURGE  NEW SURGE                                                 BOTTOM    AVERAGE
        STATION  ELEVATION    10-YEAR   100-YEAR                                                  SLOPE    A-ZONES
  OF    121.400    -21.719      0.000      9.137      0.000      0.000      0.000      0.000      0.026      0.000


            END        END  NEW SURGE  NEW SURGE                                                 BOTTOM    AVERAGE
        STATION  ELEVATION    10-YEAR   100-YEAR                                                  SLOPE    A-ZONES
  OF    124.700    -21.632      0.000      9.140      0.000      0.000      0.000      0.000      0.026      0.000


            END        END  NEW SURGE  NEW SURGE                                                 BOTTOM    AVERAGE
        STATION  ELEVATION    10-YEAR   100-YEAR                                                  SLOPE    A-ZONES
  OF    128.000    -21.545      0.000      9.142      0.000      0.000      0.000      0.000      0.027      0.000


            END        END  NEW SURGE  NEW SURGE                                                 BOTTOM    AVERAGE
        STATION  ELEVATION    10-YEAR   100-YEAR                                                  SLOPE    A-ZONES
  OF    131.200    -21.458      0.000      9.145      0.000      0.000      0.000      0.000      0.027      0.000


            END        END  NEW SURGE  NEW SURGE                                                 BOTTOM    AVERAGE
        STATION  ELEVATION    10-YEAR   100-YEAR                                                  SLOPE    A-ZONES
  OF    134.500    -21.370      0.000      9.148      0.000      0.000      0.000      0.000      0.026      0.000


            END        END  NEW SURGE  NEW SURGE                                                 BOTTOM    AVERAGE
        STATION  ELEVATION    10-YEAR   100-YEAR                                                  SLOPE    A-ZONES
  OF    137.800    -21.283      0.000      9.150      0.000      0.000      0.000      0.000      0.026      0.000


            END        END  NEW SURGE  NEW SURGE                                                 BOTTOM    AVERAGE
        STATION  ELEVATION    10-YEAR   100-YEAR                                                  SLOPE    A-ZONES
  OF    141.100    -21.196      0.000      9.153      0.000      0.000      0.000      0.000      0.026      0.000


            END        END  NEW SURGE  NEW SURGE                                                 BOTTOM    AVERAGE
        STATION  ELEVATION    10-YEAR   100-YEAR                                                  SLOPE    A-ZONES
  OF    144.400    -21.109      0.000      9.156      0.000      0.000      0.000      0.000      0.027      0.000


            END        END  NEW SURGE  NEW SURGE                                                 BOTTOM    AVERAGE
        STATION  ELEVATION    10-YEAR   100-YEAR                                                  SLOPE    A-ZONES
  OF    147.600    -21.022      0.000      9.158      0.000      0.000      0.000      0.000      0.027      0.000


            END        END  NEW SURGE  NEW SURGE                                                 BOTTOM    AVERAGE
[...]

                                             994.10          16.49

                                                                          V24  EL=16     140

                                             997.40          16.47

                                                                          V24  EL=16     140

                                            1000.70          16.44

                                                                          V24  EL=16     140

                                            1003.90          16.41

                                                                          V24  EL=16     140

                                            1007.20          16.38

                                                                          V24  EL=16     140

                                            1010.50          16.35

                                                                          V24  EL=16     140

                                            1013.80          16.32

                                                                          V24  EL=16     140

                                            1017.10          16.29

                                                                          V24  EL=16     140

                                            1020.30          16.26

                                                                          V24  EL=16     140

                                            1023.60          16.23

                                                                          V24  EL=16     140

                                            1026.90          16.20

                                                                          V24  EL=16     140

                                            1030.20          16.18

                                                                          V24  EL=16     140

                                            1033.50          16.15

                                                                          V24  EL=16     140

                                            1036.70          16.11

                                                                          V24  EL=16     140

                                            1040.00          16.06

                                                                          V24  EL=16     140

                                            1043.30          16.00

                                                                          V24  EL=16     140

                                            1046.60          15.93

                                                                          V24  EL=16     140

                                            1049.90          15.87

                                                                          V24  EL=16     140

                                            1053.10          15.80

                                                                          V24  EL=16     140

                                            1056.40          15.74

                                                                          V24  EL=16     140

                                            1059.70          15.67

                                                                          V24  EL=16     140

                                            1063.00          15.60

                                                                          V24  EL=16     140

                                            1066.30          15.54

                                                                          V24  EL=16     140

                                            1068.33          15.50

                                                                          V24  EL=15     140

                                            1069.60          15.47

                                                                          V24  EL=15     140

                                            1072.80          15.44

                                                                          V24  EL=15     140

                                            1076.10          15.50

                                                                          V24  EL=15     140

                                            1079.40          15.40

                                                                          V24  EL=15     140

                                            1082.70          14.82

                                                                          V24  EL=15     140

                                            1084.84          14.50

                                                                          V24  EL=14     140

                                            1086.00          14.32

                                                                          V24  EL=14     140

                                            1089.20          14.00

                                                                          V24  EL=14     140

                                            1092.50          13.69

                                                                          V24  EL=14     140

                                            1095.80          13.78

                                                                          V24  EL=14     140

                                            1099.10          13.89

                                                                          V24  EL=14     140

                                            1102.40          13.99

                                                                          V24  EL=14     140

                                            1105.60          14.05

                                                                          V24  EL=14     140

                                            1108.90          14.09

                                                                          V24  EL=14     140

                                            1112.20          14.12

                                                                          V24  EL=14     140

                                            1115.50          14.16

                                                                          V24  EL=14     140

                                            1118.80          14.18

                                                                          V24  EL=14     140

                                            1122.00          14.16

                                                                          V24  EL=14     140

                                            1125.30          14.08

                                                                          V24  EL=14     140

                                            1128.60          14.11

                                                                          V24  EL=14     140

                                            1131.90          14.05

                                                                          V24  EL=14     140

                                            1135.20          14.04

                                                                          V24  EL=14     140

                                            1138.40          14.03

                                                                          V24  EL=14     140

                                            1141.70          13.97

                                                                          V24  EL=14     140

                                            1145.00          13.86

                                                                          V24  EL=14     140

                                            1148.20          13.50

                                                                          V24  EL=13     140

                                            1148.30          13.49

                                                                          V24  EL=13     140

                                            1151.60          13.06

                                                                          V24  EL=13     140

                                            1154.49          12.50

                                                                          V24  EL=12     140

                                            1154.90          12.42

                                                                          V24  EL=12     140

                                            1155.96          12.29

                                                                          A18  EL=12      90

                                            1158.10          11.96

                                                                          A18  EL=12      90

                                            1161.40          12.10

                                                                          A18  EL=12      90

                                            1164.70          12.19

                                                                          A18  EL=12      90

                                            1168.00          12.22

                                                                          A18  EL=12      90

                                            1171.30          12.30

                                                                          A18  EL=12      90

                                            1174.50          12.37

                                                                          A18  EL=12      90

                                            1177.80          12.22

                                                                          A18  EL=12      90

                                            1181.10          12.13

                                                                          A18  EL=12      90

                                            1184.40          12.21

                                                                          A18  EL=12      90

                                            1187.70          12.26

                                                                          A18  EL=12      90

                                            1190.90          12.32

                                                                          A18  EL=12      90

                                            1194.20          12.37

                                                                          A18  EL=12      90

                                            1197.50          12.34

                                                                          A18  EL=12      90

                                            1200.80          12.31

                                                                          A18  EL=12      90

                                            1204.10          12.35

                                                                          A18  EL=12      90

                                            1207.30          12.31

                                                                          A18  EL=12      90

                                            1210.60          12.13

                                                                          A18  EL=12      90

                                            1213.90          11.96

                                                                          A18  EL=12      90

                                            1217.57          11.50

                                                                          A18  EL=11      90

                                            1224.80          10.59


                                            1368.60           9.62

                                                                          A18  EL=10      90

                                            1487.40           9.62


                                            1488.80           9.62

                                                                          A18  EL=10      90

                                            1507.00           9.69

                                                                          A18  EL=10      90

                                            1515.00           9.71

                                                                          A18  EL=10      90

                                            1535.50           9.75

                                                                          A18  EL=10      90

                                            1562.00           9.80

                                                                          A18  EL=10      90

                                            1571.00           9.81

                                                                          A18  EL=10      90

                                            1588.50           9.84

                                                                          A18  EL=10      90

                                            1621.50           9.88

                                                                          A18  EL=10      90

                                            1644.00           9.92

                                                                          A18  EL=10      90

                                            1663.00           9.88

                                                                          A18  EL=10      90

                                            1669.00           9.86

                                                                          A18  EL=10      90

                                            1679.20           9.63


                                            1693.70           9.63

                                                                          A18  EL=10      90

                                            1706.40           9.63


                                            1712.40           9.63

                                                                          A18  EL=10      90

                                            1718.00           9.66

                                                                          A18  EL=10      90

                                            1736.00           9.71

                                                                          A18  EL=10      90

                                            1765.00           9.77

                                                                          A18  EL=10      90

                                            1789.50           9.82

                                                                          A18  EL=10      90

                                            1803.00           9.84

                                                                          A18  EL=10      90

                                            1841.50           9.89

                                                                          A18  EL=10      90

                                            1980.90           9.64


                                            2073.80           9.65

                                                                          A18  EL=10      90

                                            2315.10           9.66


                                            2317.80           9.65

                                                                          A18  EL=10      90

                                            2324.50           9.69

                                                                          A18  EL=10      90

                                            2337.00           9.73

                                                                          A18  EL=10      90

                                            2432.20           9.66


                                            2432.60           9.65

                                                                          A18  EL=10      90

                                            2499.30           9.66


                                            3164.00           9.64

                                                                          A18  EL=10      90

                                            3456.40           9.64


                                            3562.60           9.65

                                                                          A18  EL=10      90

                                            3729.00           9.95

                                                                          A18  EL=10      90

                                            3745.50           9.97

                                                                          A18  EL=10      90

                                            3761.00           9.99

                                                                          A18  EL=10      90

                                            3771.50          10.00

                                                                          A18  EL=10      90

                                            3801.00          10.03

                                                                          A18  EL=10      90

                                            3810.50          10.04

                                                                          A18  EL=10      90

                                            3826.00          10.06

                                                                          A18  EL=10      90

                                            3837.00          10.06

                                                                          A18  EL=10      90

                                            3867.00           9.94

                                                                          A18  EL=10      90

                                            3877.00           9.96

                                                                          A18  EL=10      90

                                            3887.40           9.66


                                            3896.80           9.65

                                                                          A18  EL=10      90

                                            4022.00           9.91

                                                                          A18  EL=10      90

                                            4039.40           9.66


                                            4247.50           9.65

                                                                          A18  EL=10      90

                                            4335.30           9.66


                                            4377.20           9.65

                                                                          A18  EL=10      90

                                            4613.10           9.66



                                                  ZONE TERMINATED AT END OF TRANSECT



                                                  PART 7   POSTSCRIPT NOTES


                         PS#  1   START(384918.4767,4804143.5743)                                              
                         PS#  2   END(382742.4097,4803983.8199)                                                
