 WAVE HEIGHT COMPUTATIONS FOR FLOOD INSURANCE STUDIES (WHAFIS VERSION 4.0G, 08_2007)
 Executed on: Thu Apr  2 11:05:19 2020
 Input file:  C:\FEMA-TransectAnalysis\LOMR-TransectAnalysis-Kennebunkport\3_whafis\whafis4\YK-107.dat                                        
 Output file: C:\FEMA-TransectAnalysis\LOMR-TransectAnalysis-Kennebunkport\3_whafis\whafis4\YK-107.out                                        



                                                              header                                                                
                                                     THIS IS A 100-YEAR CASE


                                       THE FOLLOWING NON-DEFAULT WIND SPEEDS ARE BEING USED
                                            WINDIF  56.14  WINDOF  56.14  WINDVH  60.00

                                                             PART1 INPUT

          IE      0.000    -13.335      1.000      1.000      9.360      9.182     13.209     56.140      0.007      0.000
          OF      3.000    -13.315      0.000      9.360      0.000      0.000      0.000      0.000      0.007      0.000
          OF      4.000    -13.309      0.000      9.360      0.000      0.000      0.000      0.000      0.007      0.000
          OF      9.000    -13.276      0.000      9.360      0.000      0.000      0.000      0.000      0.007      0.000
          OF     10.000    -13.270      0.000      9.360      0.000      0.000      0.000      0.000      0.007      0.000
          OF     15.000    -13.237      0.000      9.360      0.000      0.000      0.000      0.000      0.007      0.000
          OF     16.000    -13.231      0.000      9.360      0.000      0.000      0.000      0.000      0.007      0.000
          OF     21.000    -13.198      0.000      9.360      0.000      0.000      0.000      0.000      0.007      0.000
          OF     22.000    -13.192      0.000      9.360      0.000      0.000      0.000      0.000      0.006      0.000
          OF     27.000    -13.160      0.000      9.360      0.000      0.000      0.000      0.000      0.007      0.000
          OF     28.000    -13.153      0.000      9.360      0.000      0.000      0.000      0.000      0.007      0.000
          OF     33.000    -13.121      0.000      9.360      0.000      0.000      0.000      0.000      0.007      0.000
          OF     34.000    -13.114      0.000      9.360      0.000      0.000      0.000      0.000      0.007      0.000
          OF     39.000    -13.082      0.000      9.360      0.000      0.000      0.000      0.000      0.007      0.000
          OF     40.000    -13.075      0.000      9.360      0.000      0.000      0.000      0.000      0.007      0.000
          OF     45.000    -13.043      0.000      9.360      0.000      0.000      0.000      0.000      0.007      0.000
          OF     46.000    -13.036      0.000      9.360      0.000      0.000      0.000      0.000      0.007      0.000
          OF     51.000    -13.004      0.000      9.360      0.000      0.000      0.000      0.000      0.007      0.000
          OF     52.000    -12.997      0.000      9.360      0.000      0.000      0.000      0.000      0.009      0.000
          OF     57.000    -12.951      0.000      9.360      0.000      0.000      0.000      0.000      0.010      0.000
          OF     58.000    -12.937      0.000      9.361      0.000      0.000      0.000      0.000      0.014      0.000
          OF     63.000    -12.865      0.000      9.361      0.000      0.000      0.000      0.000      0.014      0.000
          OF     64.000    -12.851      0.000      9.361      0.000      0.000      0.000      0.000      0.014      0.000
          OF     69.000    -12.780      0.000      9.361      0.000      0.000      0.000      0.000      0.014      0.000
          OF     70.000    -12.766      0.000      9.361      0.000      0.000      0.000      0.000      0.011      0.000
          OF     76.000    -12.701      0.000      9.361      0.000      0.000      0.000      0.000      0.011      0.000
          OF     79.000    -12.670      0.000      9.361      0.000      0.000      0.000      0.000      0.010      0.000
          OF     84.000    -12.617      0.000      9.360      0.000      0.000      0.000      0.000      0.013      0.000
          OF     85.000    -12.590      0.000      9.360      0.000      0.000      0.000      0.000      0.027      0.000
          OF     90.000    -12.452      0.000      9.360      0.000      0.000      0.000      0.000      0.028      0.000
          OF     91.000    -12.424      0.000      9.360      0.000      0.000      0.000      0.000      0.028      0.000
          OF     96.000    -12.286      0.000      9.360      0.000      0.000      0.000      0.000      0.027      0.000
          OF     97.000    -12.259      0.000      9.360      0.000      0.000      0.000      0.000      0.027      0.000
          OF    102.000    -12.121      0.000      9.360      0.000      0.000      0.000      0.000      0.027      0.000
          OF    103.000    -12.094      0.000      9.360      0.000      0.000      0.000      0.000      0.027      0.000
          OF    108.000    -11.956      0.000      9.360      0.000      0.000      0.000      0.000      0.028      0.000
          OF    109.000    -11.928      0.000      9.360      0.000      0.000      0.000      0.000      0.027      0.000
          OF    114.000    -11.791      0.000      9.360      0.000      0.000      0.000      0.000      0.027      0.000
          OF    115.000    -11.763      0.000      9.360      0.000      0.000      0.000      0.000      0.028      0.000
          OF    120.000    -11.625      0.000      9.360      0.000      0.000      0.000      0.000      0.027      0.000
          OF    121.000    -11.598      0.000      9.360      0.000      0.000      0.000      0.000      0.027      0.000
          OF    126.000    -11.460      0.000      9.359      0.000      0.000      0.000      0.000      0.028      0.000
          OF    127.000    -11.432      0.000      9.359      0.000      0.000      0.000      0.000      0.027      0.000
          OF    132.000    -11.295      0.000      9.359      0.000      0.000      0.000      0.000      0.027      0.000
          OF    133.000    -11.267      0.000      9.359      0.000      0.000      0.000      0.000      0.028      0.000
          OF    139.000    -11.102      0.000      9.359      0.000      0.000      0.000      0.000      0.027      0.000
          OF    144.000    -10.964      0.000      9.359      0.000      0.000      0.000      0.000      0.028      0.000
          OF    145.000    -10.936      0.000      9.359      0.000      0.000      0.000      0.000      0.028      0.000
          OF    156.000    -10.633      0.000      9.359      0.000      0.000      0.000      0.000      0.027      0.000
          OF    157.000    -10.606      0.000      9.359      0.000      0.000      0.000      0.000      0.027      0.000
          OF    168.000    -10.303      0.000      9.359      0.000      0.000      0.000      0.000      0.028      0.000
          OF    169.000    -10.275      0.000      9.359      0.000      0.000      0.000      0.000      0.027      0.000
          OF    180.000     -9.973      0.000      9.358      0.000      0.000      0.000      0.000      0.027      0.000
          OF    181.000     -9.945      0.000      9.358      0.000      0.000      0.000      0.000      0.027      0.000
          OF    192.000     -9.642      0.000      9.358      0.000      0.000      0.000      0.000      0.028      0.000
          OF    193.000     -9.615      0.000      9.358      0.000      0.000      0.000      0.000      0.028      0.000
          OF    204.000     -9.311      0.000      9.358      0.000      0.000      0.000      0.000      0.027      0.000
          OF    205.000     -9.284      0.000      9.358      0.000      0.000      0.000      0.000      0.027      0.000
          OF    216.000     -8.981      0.000      9.358      0.000      0.000      0.000      0.000      0.027      0.000
          OF    217.000     -8.953      0.000      9.358      0.000      0.000      0.000      0.000      0.027      0.000
          OF    228.000     -8.650      0.000      9.358      0.000      0.000      0.000      0.000      0.028      0.000
          OF    229.000     -8.623      0.000      9.358      0.000      0.000      0.000      0.000      0.028      0.000
          OF    240.000     -8.320      0.000      9.357      0.000      0.000      0.000      0.000      0.028      0.000
          OF    241.000     -8.292      0.000      9.357      0.000      0.000      0.000      0.000      0.028      0.000
          OF    250.000     -8.044      0.000      9.357      0.000      0.000      0.000      0.000      0.026      0.000
          OF    251.000     -8.031      0.000      9.357      0.000      0.000      0.000      0.000      0.005      0.000
          OF    262.000     -7.988      0.000      9.357      0.000      0.000      0.000      0.000      0.004      0.000
          OF    263.000     -7.985      0.000      9.357      0.000      0.000      0.000      0.000      0.004      0.000
          OF    274.000     -7.942      0.000      9.357      0.000      0.000      0.000      0.000      0.004      0.000
          OF    275.000     -7.939      0.000      9.357      0.000      0.000      0.000      0.000      0.004      0.000
          OF    286.000     -7.896      0.000      9.357      0.000      0.000      0.000      0.000      0.004      0.000
          OF    287.000     -7.893      0.000      9.357      0.000      0.000      0.000      0.000      0.004      0.000
          OF    298.000     -7.851      0.000      9.356      0.000      0.000      0.000      0.000      0.004      0.000
          OF    299.000     -7.847      0.000      9.356      0.000      0.000      0.000      0.000      0.004      0.000
          OF    310.000     -7.805      0.000      9.356      0.000      0.000      0.000      0.000      0.004      0.000
          OF    311.000     -7.801      0.000      9.356      0.000      0.000      0.000      0.000      0.004      0.000
          OF    322.000     -7.759      0.000      9.356      0.000      0.000      0.000      0.000      0.004      0.000
          OF    323.000     -7.755      0.000      9.356      0.000      0.000      0.000      0.000      0.004      0.000
          OF    334.000     -7.713      0.000      9.356      0.000      0.000      0.000      0.000      0.004      0.000
          OF    335.000     -7.709      0.000      9.356      0.000      0.000      0.000      0.000      0.004      0.000
          OF    346.000     -7.667      0.000      9.356      0.000      0.000      0.000      0.000      0.004      0.000
          OF    347.000     -7.663      0.000      9.356      0.000      0.000      0.000      0.000      0.004      0.000
          OF    358.000     -7.621      0.000      9.356      0.000      0.000      0.000      0.000      0.004      0.000
          OF    359.000     -7.617      0.000      9.356      0.000      0.000      0.000      0.000      0.004      0.000
          OF    370.000     -7.575      0.000      9.356      0.000      0.000      0.000      0.000      0.004      0.000
          OF    371.000     -7.571      0.000      9.356      0.000      0.000      0.000      0.000      0.004      0.000
          OF    382.000     -7.529      0.000      9.356      0.000      0.000      0.000      0.000      0.004      0.000
          OF    383.000     -7.525      0.000      9.356      0.000      0.000      0.000      0.000      0.004      0.000
          OF    394.000     -7.483      0.000      9.356      0.000      0.000      0.000      0.000      0.004      0.000
          OF    395.000     -7.479      0.000      9.356      0.000      0.000      0.000      0.000      0.004      0.000
          OF    406.000     -7.438      0.000      9.356      0.000      0.000      0.000      0.000      0.004      0.000
          OF    407.000     -7.434      0.000      9.356      0.000      0.000      0.000      0.000      0.004      0.000
          OF    418.000     -7.393      0.000      9.356      0.000      0.000      0.000      0.000      0.004      0.000
          OF    419.000     -7.389      0.000      9.356      0.000      0.000      0.000      0.000      0.004      0.000
          OF    430.000     -7.348      0.000      9.356      0.000      0.000      0.000      0.000      0.004      0.000
          OF    431.000     -7.344      0.000      9.356      0.000      0.000      0.000      0.000      0.004      0.000
          OF    442.000     -7.302      0.000      9.356      0.000      0.000      0.000      0.000      0.004      0.000
          OF    443.000     -7.299      0.000      9.356      0.000      0.000      0.000      0.000     -0.008      0.000
          OF    562.000     -8.259      0.000      9.358      0.000      0.000      0.000      0.000     -0.007      0.000
          OF    614.000     -8.581      0.000      9.359      0.000      0.000      0.000      0.000     -0.006      0.000
          OF    615.000     -8.587      0.000      9.359      0.000      0.000      0.000      0.000      0.001      0.000
          OF    626.000     -8.568      0.000      9.359      0.000      0.000      0.000      0.000      0.002      0.000
          OF    627.000     -8.564      0.000      9.359      0.000      0.000      0.000      0.000      0.003      0.000
          OF    638.000     -8.528      0.000      9.359      0.000      0.000      0.000      0.000      0.003      0.000
          OF    639.000     -8.524      0.000      9.359      0.000      0.000      0.000      0.000      0.002      0.000
          OF    651.000     -8.502      0.000      9.359      0.000      0.000      0.000      0.000      0.002      0.000
          OF    652.000     -8.500      0.000      9.359      0.000      0.000      0.000      0.000      0.001      0.000
          OF    663.000     -8.484      0.000      9.359      0.000      0.000      0.000      0.000      0.002      0.000
          OF    664.000     -8.483      0.000      9.359      0.000      0.000      0.000      0.000      0.002      0.000
          OF    675.000     -8.467      0.000      9.360      0.000      0.000      0.000      0.000      0.001      0.000
          OF    676.000     -8.465      0.000      9.360      0.000      0.000      0.000      0.000      0.002      0.000
          OF    687.000     -8.449      0.000      9.360      0.000      0.000      0.000      0.000      0.002      0.000
          OF    688.000     -8.448      0.000      9.360      0.000      0.000      0.000      0.000      0.001      0.000
          OF    699.000     -8.432      0.000      9.360      0.000      0.000      0.000      0.000      0.002      0.000
          OF    700.000     -8.430      0.000      9.360      0.000      0.000      0.000      0.000      0.002      0.000
          OF    711.000     -8.414      0.000      9.360      0.000      0.000      0.000      0.000      0.001      0.000
          OF    712.000     -8.413      0.000      9.360      0.000      0.000      0.000      0.000      0.002      0.000
          OF    723.000     -8.397      0.000      9.360      0.000      0.000      0.000      0.000      0.002      0.000
          OF    724.000     -8.395      0.000      9.360      0.000      0.000      0.000      0.000      0.001      0.000
          OF    735.000     -8.379      0.000      9.361      0.000      0.000      0.000      0.000      0.002      0.000
          OF    736.000     -8.378      0.000      9.361      0.000      0.000      0.000      0.000      0.002      0.000
          OF    747.000     -8.362      0.000      9.361      0.000      0.000      0.000      0.000      0.002      0.000
          OF    748.000     -8.360      0.000      9.361      0.000      0.000      0.000      0.000      0.002      0.000
          OF    759.000     -8.344      0.000      9.361      0.000      0.000      0.000      0.000      0.001      0.000
          OF    760.000     -8.343      0.000      9.361      0.000      0.000      0.000      0.000      0.002      0.000
          OF    772.000     -8.325      0.000      9.361      0.000      0.000      0.000      0.000      0.002      0.000
          OF    778.000     -8.317      0.000      9.361      0.000      0.000      0.000      0.000      0.002      0.000
          OF    781.000     -8.312      0.000      9.361      0.000      0.000      0.000      0.000      0.003      0.000
          OF    792.000     -8.269      0.000      9.361      0.000      0.000      0.000      0.000      0.004      0.000
          OF    793.000     -8.263      0.000      9.361      0.000      0.000      0.000      0.000      0.007      0.000
          OF    804.000     -8.190      0.000      9.362      0.000      0.000      0.000      0.000      0.007      0.000
          OF    805.000     -8.183      0.000      9.362      0.000      0.000      0.000      0.000      0.007      0.000
          OF    816.000     -8.110      0.000      9.362      0.000      0.000      0.000      0.000      0.007      0.000
          OF    817.000     -8.103      0.000      9.362      0.000      0.000      0.000      0.000      0.007      0.000
          OF    828.000     -8.030      0.000      9.362      0.000      0.000      0.000      0.000      0.007      0.000
          OF    829.000     -8.024      0.000      9.362      0.000      0.000      0.000      0.000      0.007      0.000
          OF    840.000     -7.950      0.000      9.362      0.000      0.000      0.000      0.000      0.007      0.000
          OF    841.000     -7.944      0.000      9.362      0.000      0.000      0.000      0.000      0.007      0.000
          OF    852.000     -7.871      0.000      9.362      0.000      0.000      0.000      0.000      0.007      0.000
          OF    853.000     -7.864      0.000      9.362      0.000      0.000      0.000      0.000      0.007      0.000
          OF    864.000     -7.791      0.000      9.362      0.000      0.000      0.000      0.000      0.007      0.000
          OF    865.000     -7.784      0.000      9.362      0.000      0.000      0.000      0.000      0.007      0.000
          OF    876.000     -7.711      0.000      9.362      0.000      0.000      0.000      0.000      0.007      0.000
          OF    877.000     -7.705      0.000      9.362      0.000      0.000      0.000      0.000      0.007      0.000
          OF    888.000     -7.631      0.000      9.362      0.000      0.000      0.000      0.000      0.007      0.000
          OF    889.000     -7.625      0.000      9.362      0.000      0.000      0.000      0.000      0.009      0.000
          OF    900.000     -7.528      0.000      9.363      0.000      0.000      0.000      0.000      0.009      0.000
          OF    901.000     -7.517      0.000      9.363      0.000      0.000      0.000      0.000      0.011      0.000
          OF    912.000     -7.398      0.000      9.363      0.000      0.000      0.000      0.000      0.011      0.000
          OF    913.000     -7.387      0.000      9.363      0.000      0.000      0.000      0.000      0.011      0.000
          OF    924.000     -7.268      0.000      9.363      0.000      0.000      0.000      0.000      0.011      0.000
          OF    925.000     -7.258      0.000      9.363      0.000      0.000      0.000      0.000      0.010      0.000
          OF    936.000     -7.148      0.000      9.363      0.000      0.000      0.000      0.000      0.010      0.000
          OF    937.000     -7.141      0.000      9.363      0.000      0.000      0.000      0.000      0.007      0.000
          OF    948.000     -7.065      0.000      9.363      0.000      0.000      0.000      0.000      0.007      0.000
          OF    949.000     -7.058      0.000      9.363      0.000      0.000      0.000      0.000      0.007      0.000
          OF    960.000     -6.982      0.000      9.363      0.000      0.000      0.000      0.000      0.007      0.000
          OF    961.000     -6.975      0.000      9.363      0.000      0.000      0.000      0.000      0.007      0.000
          OF    972.000     -6.898      0.000      9.363      0.000      0.000      0.000      0.000      0.007      0.000
          OF    973.000     -6.888      0.000      9.363      0.000      0.000      0.000      0.000      0.009      0.000
          OF    984.000     -6.786      0.000      9.364      0.000      0.000      0.000      0.000      0.009      0.000
          OF    985.000     -6.777      0.000      9.364      0.000      0.000      0.000      0.000      0.009      0.000
          OF    996.000     -6.675      0.000      9.364      0.000      0.000      0.000      0.000      0.009      0.000
          OF    997.000     -6.666      0.000      9.364      0.000      0.000      0.000      0.000      0.009      0.000
          OF   1008.000     -6.563      0.000      9.364      0.000      0.000      0.000      0.000      0.009      0.000
          OF   1009.000     -6.554      0.000      9.364      0.000      0.000      0.000      0.000      0.009      0.000
          OF   1020.000     -6.452      0.000      9.364      0.000      0.000      0.000      0.000      0.009      0.000
          OF   1021.000     -6.443      0.000      9.364      0.000      0.000      0.000      0.000      0.009      0.000
          OF   1032.000     -6.341      0.000      9.364      0.000      0.000      0.000      0.000      0.009      0.000
          OF   1033.000     -6.332      0.000      9.364      0.000      0.000      0.000      0.000      0.009      0.000
          OF   1044.000     -6.229      0.000      9.364      0.000      0.000      0.000      0.000      0.009      0.000
          OF   1045.000     -6.220      0.000      9.364      0.000      0.000      0.000      0.000      0.009      0.000
          OF   1056.000     -6.118      0.000      9.365      0.000      0.000      0.000      0.000      0.009      0.000
          OF   1057.000     -6.109      0.000      9.365      0.000      0.000      0.000      0.000      0.007      0.000
          OF   1072.000     -6.002      0.000      9.365      0.000      0.000      0.000      0.000      0.007      0.000
          OF   1073.000     -5.998      0.000      9.365      0.000      0.000      0.000      0.000      0.004      0.000
          OF   1084.000     -5.960      0.000      9.365      0.000      0.000      0.000      0.000      0.004      0.000
          OF   1085.000     -5.956      0.000      9.366      0.000      0.000      0.000      0.000      0.004      0.000
          OF   1096.000     -5.918      0.000      9.366      0.000      0.000      0.000      0.000      0.004      0.000
          OF   1097.000     -5.915      0.000      9.366      0.000      0.000      0.000      0.000      0.004      0.000
          OF   1108.000     -5.876      0.000      9.366      0.000      0.000      0.000      0.000      0.004      0.000
          OF   1109.000     -5.873      0.000      9.366      0.000      0.000      0.000      0.000      0.004      0.000
          OF   1120.000     -5.834      0.000      9.367      0.000      0.000      0.000      0.000      0.004      0.000
          OF   1121.000     -5.831      0.000      9.367      0.000      0.000      0.000      0.000      0.004      0.000
          OF   1132.000     -5.793      0.000      9.367      0.000      0.000      0.000      0.000      0.004      0.000
          OF   1133.000     -5.789      0.000      9.367      0.000      0.000      0.000      0.000      0.004      0.000
          OF   1144.000     -5.751      0.000      9.368      0.000      0.000      0.000      0.000      0.004      0.000
          OF   1145.000     -5.747      0.000      9.368      0.000      0.000      0.000      0.000      0.004      0.000
          OF   1156.000     -5.709      0.000      9.368      0.000      0.000      0.000      0.000      0.004      0.000
          OF   1157.000     -5.705      0.000      9.368      0.000      0.000      0.000      0.000      0.004      0.000
          OF   1168.000     -5.656      0.000      9.369      0.000      0.000      0.000      0.000      0.005      0.000
          OF   1169.000     -5.650      0.000      9.369      0.000      0.000      0.000      0.000      0.005      0.000
          OF   1181.000     -5.589      0.000      9.369      0.000      0.000      0.000      0.000      0.003      0.000
          OF   1195.000     -5.577      0.000      9.369      0.000      0.000      0.000      0.000      0.001      0.000
          OF   1196.000     -5.575      0.000      9.369      0.000      0.000      0.000      0.000      0.002      0.000
          OF   1207.000     -5.551      0.000      9.369      0.000      0.000      0.000      0.000      0.002      0.000
          OF   1208.000     -5.549      0.000      9.369      0.000      0.000      0.000      0.000      0.002      0.000
          OF   1219.000     -5.526      0.000      9.369      0.000      0.000      0.000      0.000      0.002      0.000
          OF   1220.000     -5.523      0.000      9.369      0.000      0.000      0.000      0.000      0.002      0.000
          OF   1232.000     -5.498      0.000      9.369      0.000      0.000      0.000      0.000      0.002      0.000
          OF   1243.000     -5.474      0.000      9.369      0.000      0.000      0.000      0.000      0.002      0.000
          OF   1244.000     -5.472      0.000      9.369      0.000      0.000      0.000      0.000      0.002      0.000
          OF   1262.000     -5.433      0.000      9.369      0.000      0.000      0.000      0.000      0.012      0.000
          OF   1276.000     -5.100      0.000      9.368      0.000      0.000      0.000      0.000      0.025      0.000
          OF   1277.000     -5.054      0.000      9.368      0.000      0.000      0.000      0.000      0.039      0.000
          OF   1374.700     -1.285      0.000      9.363      0.000      0.000      0.000      0.000      0.040      0.000
          OF   1377.900     -0.975      0.000      9.363      0.000      0.000      0.000      0.000      0.127      0.000
          OF   1381.200     -0.460      0.000      9.360      0.000      0.000      0.000      0.000      0.127      0.000
          IF   1397.600      1.534      0.000      9.361      0.000      0.000      0.000      0.000      0.113      0.000
          IF   1400.900      1.761      0.000      9.366      0.000      0.000      0.000      0.000      0.069      0.000
          IF   1404.200      1.990      0.000      9.372      0.000      0.000      0.000      0.000      0.073      0.000
          IF   1407.500      2.245      0.000      9.379      0.000      0.000      0.000      0.000      0.077      0.000
          IF   1410.800      2.499      0.000      9.386      0.000      0.000      0.000      0.000      0.078      0.000
          IF   1414.000      2.754      0.000      9.394      0.000      0.000      0.000      0.000      0.097      0.000
          IF   1417.300      3.132      0.000      9.401      0.000      0.000      0.000      0.000      0.123      0.000
          IF   1420.600      3.563      0.000      9.407      0.000      0.000      0.000      0.000      0.131      0.000
          IF   1423.900      3.994      0.000      9.417      0.000      0.000      0.000      0.000      0.112      0.000
          IF   1427.200      4.305      0.000      9.436      0.000      0.000      0.000      0.000      0.091      0.000
          IF   1430.400      4.588      0.000      9.458      0.000      0.000      0.000      0.000      0.087      0.000
          IF   1433.700      4.871      0.000      9.484      0.000      0.000      0.000      0.000      0.059      0.000
          IF   1437.000      4.979      0.000      9.514      0.000      0.000      0.000      0.000      0.030      0.000
          IF   1440.300      5.072      0.000      9.542      0.000      0.000      0.000      0.000      0.028      0.000
          IF   1443.600      5.164      0.000      9.557      0.000      0.000      0.000      0.000      0.061      0.000
          IF   1446.800      5.468      0.000      9.572      0.000      0.000      0.000      0.000      0.106      0.000
          IF   1450.100      5.855      0.000      9.592      0.000      0.000      0.000      0.000      0.097      0.000
          IF   1453.400      6.107      0.000      9.620      0.000      0.000      0.000      0.000      0.049      0.000
          IF   1456.700      6.179      0.000      9.654      0.000      0.000      0.000      0.000      0.023      0.000
          IF   1460.000      6.257      0.000      9.681      0.000      0.000      0.000      0.000      0.024      0.000
          IF   1463.300      6.340      0.000      9.705      0.000      0.000      0.000      0.000      0.010      0.000
          IF   1466.500      6.323      0.000      9.729      0.000      0.000      0.000      0.000     -0.015      0.000
          IF   1469.800      6.245      0.000      9.749      0.000      0.000      0.000      0.000      0.053      0.000
          IF   1473.100      6.672      0.000      9.755      0.000      0.000      0.000      0.000      0.095      0.000
          IF   1476.400      6.872      0.000      9.770      0.000      0.000      0.000      0.000      0.046      0.000
          IF   1479.700      6.974      0.000      9.789      0.000      0.000      0.000      0.000      0.031      0.000
          IF   1482.900      7.076      0.000      9.806      0.000      0.000      0.000      0.000      0.023      0.000
          IF   1486.200      7.124      0.000      9.823      0.000      0.000      0.000      0.000      0.013      0.000
          IF   1489.500      7.162      0.000      9.838      0.000      0.000      0.000      0.000      0.011      0.000
          IF   1492.800      7.199      0.000      9.851      0.000      0.000      0.000      0.000      0.011      0.000
          IF   1496.100      7.233      0.000      9.861      0.000      0.000      0.000      0.000      0.009      0.000
          IF   1499.300      7.260      0.000      9.871      0.000      0.000      0.000      0.000      0.008      0.000
          IF   1502.600      7.287      0.000      9.879      0.000      0.000      0.000      0.000      0.003      0.000
          IF   1505.900      7.279      0.000      9.887      0.000      0.000      0.000      0.000     -0.003      0.000
          IF   1509.200      7.266      0.000      9.893      0.000      0.000      0.000      0.000     -0.012      0.000
          IF   1512.500      7.197      0.000      9.899      0.000      0.000      0.000      0.000     -0.042      0.000
          IF   1515.700      6.993      0.000      9.906      0.000      0.000      0.000      0.000     -0.063      0.000
          IF   1519.000      6.788      0.000      9.910      0.000      0.000      0.000      0.000     -0.047      0.000
          IF   1522.300      6.681      0.000      9.913      0.000      0.000      0.000      0.000      0.013      0.000
          IF   1525.600      6.875      0.000      9.911      0.000      0.000      0.000      0.000      0.054      0.000
          IF   1528.900      7.038      0.000      9.911      0.000      0.000      0.000      0.000      0.056      0.000
          IF   1532.100      7.239      0.000      9.910      0.000      0.000      0.000      0.000      0.093      0.000
          IF   1535.400      7.644      0.000      9.907      0.000      0.000      0.000      0.000      0.123      0.000
          IF   1538.700      8.049      0.000      9.908      0.000      0.000      0.000      0.000      0.221      0.000
          IF   1542.000      9.105      0.000      9.972      0.000      0.000      0.000      0.000      0.370      0.000
          IF   1543.900      9.972      0.000      9.972      0.000      0.000      0.000      0.000      0.457      0.000
          AS   1681.600      9.604      0.000      9.604      0.000      0.000      0.000      0.000     -0.021      0.000
          IF   1685.500      9.521      0.000      9.604      0.000      0.000      0.000      0.000      0.000      0.000
          IF   1692.200      9.604      0.000      9.604      0.000      0.000      0.000      0.000      0.012      0.000
          AS   1705.600      9.604      0.000      9.604      0.000      0.000      0.000      0.000     -0.023      0.000
          IF   1710.000      9.501      0.000      9.604      0.000      0.000      0.000      0.000      0.000      0.000
          IF   1712.300      9.604      0.000      9.604      0.000      0.000      0.000      0.000      0.045      0.000
          AS   1816.100      9.579      0.000      9.579      0.000      0.000      0.000      0.000     -0.157      0.000
          IF   1824.000      8.340      0.000      9.579      0.000      0.000      0.000      0.000     -0.022      0.000
          IF   1853.500      8.747      0.000      9.579      0.000      0.000      0.000      0.000      0.012      0.000
          IF   1885.000      9.042      0.000      9.579      0.000      0.000      0.000      0.000      0.008      0.000
          IF   1899.500      9.108      0.000      9.579      0.000      0.000      0.000      0.000     -0.026      0.000
          IF   1905.500      8.517      0.000      9.579      0.000      0.000      0.000      0.000     -0.050      0.000
          IF   1916.500      8.251      0.000      9.580      0.000      0.000      0.000      0.000     -0.006      0.000
          IF   1929.000      8.386      0.000      9.580      0.000      0.000      0.000      0.000     -0.001      0.000
          IF   1941.000      8.222      0.000      9.580      0.000      0.000      0.000      0.000      0.004      0.000
          IF   1950.000      8.481      0.000      9.580      0.000      0.000      0.000      0.000     -0.012      0.000
          IF   1970.500      7.881      0.000      9.580      0.000      0.000      0.000      0.000      0.011      0.000
          IF   2005.000      9.062      0.000      9.580      0.000      0.000      0.000      0.000      0.008      0.000
          IF   2023.000      8.320      0.000      9.580      0.000      0.000      0.000      0.000     -0.046      0.000
          IF   2033.500      7.749      0.000      9.580      0.000      0.000      0.000      0.000     -0.032      0.000
          IF   2051.500      7.421      0.000      9.580      0.000      0.000      0.000      0.000     -0.016      0.000
          IF   2066.000      7.224      0.000      9.581      0.000      0.000      0.000      0.000      0.014      0.000
          IF   2078.500      7.795      0.000      9.581      0.000      0.000      0.000      0.000      0.015      0.000
          IF   2095.500      7.661      0.000      9.581      0.000      0.000      0.000      0.000     -0.015      0.000
          IF   2108.000      7.365      0.000      9.581      0.000      0.000      0.000      0.000     -0.022      0.000
          IF   2118.500      7.159      0.000      9.581      0.000      0.000      0.000      0.000      0.001      0.000
          IF   2135.500      7.402      0.000      9.580      0.000      0.000      0.000      0.000      0.006      0.000
          IF   2143.000      7.300      0.000      9.580      0.000      0.000      0.000      0.000      0.051      0.000
          IF   2149.500      8.110      0.000      9.580      0.000      0.000      0.000      0.000      0.000      0.000
          IF   2160.500      7.300      0.000      9.580      0.000      0.000      0.000      0.000     -0.025      0.000
          IF   2185.000      7.234      0.000      9.579      0.000      0.000      0.000      0.000      0.006      0.000
          IF   2215.500      7.651      0.000      9.578      0.000      0.000      0.000      0.000     -0.003      0.000
          IF   2229.000      7.106      0.000      9.578      0.000      0.000      0.000      0.000     -0.060      0.000
          IF   2235.000      6.480      0.000      9.578      0.000      0.000      0.000      0.000     -0.024      0.000
          IF   2247.000      6.667      0.000      9.578      0.000      0.000      0.000      0.000      0.014      0.000
          IF   2260.500      6.831      0.000      9.578      0.000      0.000      0.000      0.000      0.016      0.000
          IF   2269.500      7.028      0.000      9.578      0.000      0.000      0.000      0.000      0.011      0.000
          IF   2281.500      7.060      0.000      9.578      0.000      0.000      0.000      0.000     -0.012      0.000
          IF   2285.500      6.831      0.000      9.578      0.000      0.000      0.000      0.000     -0.013      0.000
          IF   2297.000      6.864      0.000      9.578      0.000      0.000      0.000      0.000     -0.032      0.000
          IF   2311.000      6.020      0.000      9.579      0.000      0.000      0.000      0.000      0.010      0.000
          IF   2327.000      7.159      0.000      9.579      0.000      0.000      0.000      0.000      0.059      0.000
          IF   2341.500      7.815      0.000      9.579      0.000      0.000      0.000      0.000     -0.004      0.000
          IF   2349.000      7.060      0.000      9.579      0.000      0.000      0.000      0.000     -0.044      0.000
          IF   2356.500      7.159      0.000      9.579      0.000      0.000      0.000      0.000     -0.066      0.000
          IF   2364.500      6.043      0.000      9.579      0.000      0.000      0.000      0.000     -0.066      0.000
          IF   2374.500      5.978      0.000      9.580      0.000      0.000      0.000      0.000     -0.051      0.000
          IF   2383.000      5.092      0.000      9.580      0.000      0.000      0.000      0.000     -0.031      0.000
          IF   2388.500      5.551      0.000      9.580      0.000      0.000      0.000      0.000     -0.019      0.000
          IF   2395.000      4.862      0.000      9.580      0.000      0.000      0.000      0.000     -0.028      0.000
          IF   2403.500      5.125      0.000      9.580      0.000      0.000      0.000      0.000     -0.009      0.000
          IF   2431.000      4.534      0.000      9.580      0.000      0.000      0.000      0.000     -0.023      0.000
          IF   2437.000      4.370      0.000      9.580      0.000      0.000      0.000      0.000     -0.050      0.000
          IF   2447.500      3.714      0.000      9.580      0.000      0.000      0.000      0.000     -0.033      0.000
          IF   2454.000      3.812      0.000      9.580      0.000      0.000      0.000      0.000      0.017      0.000
          IF   2465.000      4.009      0.000      9.580      0.000      0.000      0.000      0.000     -0.001      0.000
          IF   2477.000      3.780      0.000      9.580      0.000      0.000      0.000      0.000      0.003      0.000
          IF   2489.500      4.075      0.000      9.581      0.000      0.000      0.000      0.000      0.010      0.000
          IF   2497.500      3.976      0.000      9.581      0.000      0.000      0.000      0.000     -0.015      0.000
          IF   2506.500      3.812      0.000      9.581      0.000      0.000      0.000      0.000     -0.009      0.000
          IF   2519.000      3.780      0.000      9.581      0.000      0.000      0.000      0.000     -0.009      0.000
          IF   2531.500      3.583      0.000      9.581      0.000      0.000      0.000      0.000      0.004      0.000
          IF   2541.500      3.878      0.000      9.581      0.000      0.000      0.000      0.000      0.010      0.000
          IF   2561.000      3.878      0.000      9.581      0.000      0.000      0.000      0.000     -0.015      0.000
          IF   2570.000      3.451      0.000      9.581      0.000      0.000      0.000      0.000     -0.033      0.000
          IF   2580.000      3.255      0.000      9.582      0.000      0.000      0.000      0.000      0.007      0.000
          IF   2604.500      3.681      0.000      9.582      0.000      0.000      0.000      0.000      0.032      0.000
          IF   2612.500      4.305      0.000      9.583      0.000      0.000      0.000      0.000     -0.013      0.000
          IF   2630.000      3.353      0.000      9.583      0.000      0.000      0.000      0.000     -0.052      0.000
          IF   2638.500      2.959      0.000      9.583      0.000      0.000      0.000      0.000      0.025      0.000
          IF   2661.500      4.140      0.000      9.584      0.000      0.000      0.000      0.000      0.042      0.000
          IF   2670.500      4.305      0.000      9.584      0.000      0.000      0.000      0.000     -0.003      0.000
          IF   2684.500      4.075      0.000      9.585      0.000      0.000      0.000      0.000     -0.021      0.000
          IF   2697.500      3.747      0.000      9.585      0.000      0.000      0.000      0.000      0.000      0.000
          IF   2708.000      4.075      0.000      9.585      0.000      0.000      0.000      0.000      0.029      0.000
          IF   2720.500      4.403      0.000      9.585      0.000      0.000      0.000      0.000      0.019      0.000
          IF   2729.000      4.469      0.000      9.586      0.000      0.000      0.000      0.000     -0.009      0.000
          IF   2738.000      4.239      0.000      9.586      0.000      0.000      0.000      0.000     -0.002      0.000
          IF   2746.000      4.432      0.000      9.586      0.000      0.000      0.000      0.000      0.027      0.000
          IF   2754.000      4.665      0.000      9.586      0.000      0.000      0.000      0.000     -0.009      0.000
          IF   2764.500      4.272      0.000      9.587      0.000      0.000      0.000      0.000     -0.029      0.000
          IF   2772.000      4.140      0.000      9.587      0.000      0.000      0.000      0.000     -0.002      0.000
          IF   2785.500      4.239      0.000      9.587      0.000      0.000      0.000      0.000      0.008      0.000
          IF   2792.000      4.301      0.000      9.587      0.000      0.000      0.000      0.000     -0.042      0.000
          IF   2802.000      3.547      0.000      9.587      0.000      0.000      0.000      0.000     -0.015      0.000
          IF   2816.000      3.944      0.000      9.588      0.000      0.000      0.000      0.000      0.028      0.000
          IF   2831.500      4.367      0.000      9.588      0.000      0.000      0.000      0.000      0.007      0.000
          IF   2843.000      4.137      0.000      9.588      0.000      0.000      0.000      0.000     -0.020      0.000
          IF   2854.000      3.908      0.000      9.589      0.000      0.000      0.000      0.000     -0.020      0.000
          IF   2864.500      3.711      0.000      9.589      0.000      0.000      0.000      0.000     -0.003      0.000
          IF   2873.500      3.842      0.000      9.589      0.000      0.000      0.000      0.000      0.012      0.000
          IF   2887.000      3.973      0.000      9.590      0.000      0.000      0.000      0.000      0.017      0.000
          IF   2892.500      4.170      0.000      9.590      0.000      0.000      0.000      0.000     -0.001      0.000
          IF   2924.500      3.940      0.000      9.590      0.000      0.000      0.000      0.000     -0.007      0.000
          IF   2932.000      3.908      0.000      9.591      0.000      0.000      0.000      0.000     -0.004      0.000
          IF   2941.500      3.875      0.000      9.591      0.000      0.000      0.000      0.000      0.005      0.000
          IF   2950.500      4.006      0.000      9.591      0.000      0.000      0.000      0.000      0.015      0.000
          IF   2959.000      4.137      0.000      9.591      0.000      0.000      0.000      0.000     -0.007      0.000
          IF   2970.000      3.875      0.000      9.591      0.000      0.000      0.000      0.000     -0.002      0.000
          IF   2980.000      4.104      0.000      9.591      0.000      0.000      0.000      0.000     -0.002      0.000
          IF   2987.000      3.842      0.000      9.591      0.000      0.000      0.000      0.000     -0.025      0.000
          IF   2997.000      3.678      0.000      9.592      0.000      0.000      0.000      0.000      0.007      0.000
          IF   3011.000      4.006      0.000      9.592      0.000      0.000      0.000      0.000     -0.020      0.000
          IF   3033.000      2.956      0.000      9.592      0.000      0.000      0.000      0.000     -0.015      0.000
          IF   3041.000      3.547      0.000      9.592      0.000      0.000      0.000      0.000      0.027      0.000
          IF   3074.000      4.071      0.000      9.592      0.000      0.000      0.000      0.000      0.009      0.000
          IF   3082.000      3.908      0.000      9.592      0.000      0.000      0.000      0.000     -0.028      0.000
          IF   3099.000      3.382      0.000      9.592      0.000      0.000      0.000      0.000      0.004      0.000
          IF   3104.500      4.006      0.000      9.592      0.000      0.000      0.000      0.000      0.029      0.000
          IF   3116.000      3.875      0.000      9.593      0.000      0.000      0.000      0.000     -0.010      0.000
          IF   3129.500      3.743      0.000      9.593      0.000      0.000      0.000      0.000     -0.004      0.000
          IF   3140.500      3.776      0.000      9.593      0.000      0.000      0.000      0.000      0.023      0.000
          IF   3151.000      4.236      0.000      9.593      0.000      0.000      0.000      0.000      0.028      0.000
          IF   3160.500      4.334      0.000      9.593      0.000      0.000      0.000      0.000     -0.002      0.000
          IF   3171.000      4.203      0.000      9.593      0.000      0.000      0.000      0.000     -0.008      0.000
          IF   3186.500      4.137      0.000      9.593      0.000      0.000      0.000      0.000     -0.020      0.000
          IF   3201.500      3.579      0.000      9.593      0.000      0.000      0.000      0.000      0.001      0.000
          IF   3210.500      4.170      0.000      9.593      0.000      0.000      0.000      0.000      0.015      0.000
          IF   3230.000      4.006      0.000      9.594      0.000      0.000      0.000      0.000     -0.010      0.000
          IF   3236.500      3.908      0.000      9.594      0.000      0.000      0.000      0.000     -0.004      0.000
          IF   3247.500      3.940      0.000      9.594      0.000      0.000      0.000      0.000      0.003      0.000
          IF   3259.500      3.973      0.000      9.594      0.000      0.000      0.000      0.000     -0.011      0.000
          IF   3270.500      3.678      0.000      9.594      0.000      0.000      0.000      0.000     -0.015      0.000
          IF   3277.500      3.711      0.000      9.594      0.000      0.000      0.000      0.000     -0.001      0.000
          IF   3301.500      3.645      0.000      9.594      0.000      0.000      0.000      0.000      0.001      0.000
          IF   3307.500      3.743      0.000      9.594      0.000      0.000      0.000      0.000      0.000      0.000
          IF   3321.000      3.645      0.000      9.594      0.000      0.000      0.000      0.000      0.000      0.000
          IF   3325.500      3.743      0.000      9.594      0.000      0.000      0.000      0.000      0.011      0.000
          IF   3344.000      3.908      0.000      9.594      0.000      0.000      0.000      0.000      0.002      0.000
          IF   3352.000      3.809      0.000      9.594      0.000      0.000      0.000      0.000     -0.001      0.000
          IF   3368.500      3.875      0.000      9.595      0.000      0.000      0.000      0.000      0.004      0.000
          IF   3383.000      3.940      0.000      9.595      0.000      0.000      0.000      0.000     -0.002      0.000
          IF   3390.000      3.842      0.000      9.595      0.000      0.000      0.000      0.000      0.015      0.000
          IF   3409.500      4.334      0.000      9.595      0.000      0.000      0.000      0.000      0.007      0.000
          IF   3417.000      4.039      0.000      9.595      0.000      0.000      0.000      0.000     -0.002      0.000
          IF   3429.000      4.301      0.000      9.595      0.000      0.000      0.000      0.000      0.011      0.000
          IF   3438.000      4.268      0.000      9.595      0.000      0.000      0.000      0.000      0.008      0.000
          IF   3445.000      4.432      0.000      9.595      0.000      0.000      0.000      0.000      0.014      0.000
          IF   3456.500      4.531      0.000      9.595      0.000      0.000      0.000      0.000      0.009      0.000
          IF   3473.500      4.695      0.000      9.595      0.000      0.000      0.000      0.000      0.022      0.000
          IF   3480.000      5.056      0.000      9.595      0.000      0.000      0.000      0.000     -0.004      0.000
          IF   3488.000      4.629      0.000      9.595      0.000      0.000      0.000      0.000      0.000      0.000
          IF   3499.000      5.056      0.000      9.595      0.000      0.000      0.000      0.000      0.013      0.000
          IF   3511.500      4.924      0.000      9.595      0.000      0.000      0.000      0.000     -0.002      0.000
          IF   3519.500      5.023      0.000      9.595      0.000      0.000      0.000      0.000     -0.014      0.000
          IF   3526.000      4.728      0.000      9.595      0.000      0.000      0.000      0.000      0.035      0.000
          IF   3534.500      5.548      0.000      9.595      0.000      0.000      0.000      0.000      0.014      0.000
          IF   3545.000      4.990      0.000      9.595      0.000      0.000      0.000      0.000     -0.034      0.000
          IF   3554.000      4.892      0.000      9.595      0.000      0.000      0.000      0.000     -0.015      0.000
          IF   3562.000      4.728      0.000      9.595      0.000      0.000      0.000      0.000     -0.007      0.000
          IF   3569.000      4.793      0.000      9.595      0.000      0.000      0.000      0.000     -0.007      0.000
          IF   3580.500      4.596      0.000      9.595      0.000      0.000      0.000      0.000      0.020      0.000
          IF   3597.500      5.351      0.000      9.595      0.000      0.000      0.000      0.000      0.037      0.000
          IF   3603.500      5.450      0.000      9.595      0.000      0.000      0.000      0.000     -0.009      0.000
          IF   3612.500      5.220      0.000      9.595      0.000      0.000      0.000      0.000     -0.013      0.000
          IF   3619.000      5.253      0.000      9.595      0.000      0.000      0.000      0.000     -0.013      0.000
          IF   3625.000      5.056      0.000      9.595      0.000      0.000      0.000      0.000      0.012      0.000
          IF   3632.500      5.417      0.000      9.595      0.000      0.000      0.000      0.000     -0.026      0.000
          IF   3639.000      4.695      0.000      9.595      0.000      0.000      0.000      0.000      0.014      0.000
          IF   3649.500      5.646      0.000      9.595      0.000      0.000      0.000      0.000      0.048      0.000
          IF   3663.000      5.843      0.000      9.595      0.000      0.000      0.000      0.000      0.010      0.000
          IF   3673.000      5.876      0.000      9.595      0.000      0.000      0.000      0.000      0.011      0.000
          IF   3678.000      6.007      0.000      9.595      0.000      0.000      0.000      0.000     -0.040      0.000
          IF   3689.500      5.220      0.000      9.595      0.000      0.000      0.000      0.000     -0.015      0.000
          IF   3704.000      5.614      0.000      9.595      0.000      0.000      0.000      0.000      0.012      0.000
          IF   3716.500      5.548      0.000      9.595      0.000      0.000      0.000      0.000     -0.005      0.000
          IF   3724.000      5.515      0.000      9.595      0.000      0.000      0.000      0.000     -0.032      0.000
          IF   3731.000      5.089      0.000      9.595      0.000      0.000      0.000      0.000      0.004      0.000
          IF   3739.000      5.581      0.000      9.595      0.000      0.000      0.000      0.000      0.028      0.000
          IF   3746.000      5.515      0.000      9.595      0.000      0.000      0.000      0.000     -0.009      0.000
          IF   3754.000      5.450      0.000      9.595      0.000      0.000      0.000      0.000     -0.014      0.000
          IF   3763.000      5.285      0.000      9.595      0.000      0.000      0.000      0.000      0.015      0.000
          IF   3771.000      5.712      0.000      9.595      0.000      0.000      0.000      0.000      0.011      0.000
          IF   3784.000      5.515      0.000      9.595      0.000      0.000      0.000      0.000     -0.011      0.000
          IF   3798.000      5.417      0.000      9.595      0.000      0.000      0.000      0.000      0.051      0.000
          IF   3803.500      6.516      0.000      9.595      0.000      0.000      0.000      0.000      0.034      0.000
          IF   3811.000      5.860      0.000      9.595      0.000      0.000      0.000      0.000     -0.031      0.000
          IF   3823.500      5.889      0.000      9.595      0.000      0.000      0.000      0.000      0.032      0.000
          IF   3831.500      6.516      0.000      9.595      0.000      0.000      0.000      0.000      0.062      0.000
          IF   3841.500      7.005      0.000      9.595      0.000      0.000      0.000      0.000      0.054      0.000
          IF   3851.000      7.566      0.000      9.595      0.000      0.000      0.000      0.000      0.028      0.000
          IF   3865.500      7.680      0.000      9.595      0.000      0.000      0.000      0.000      0.034      0.000
          IF   3883.000      8.665      0.000      9.595      0.000      0.000      0.000      0.000      0.042      0.000
          IF   3891.500      8.763      0.000      9.595      0.000      0.000      0.000      0.000     -0.010      0.000
          IF   3901.000      8.481      0.000      9.595      0.000      0.000      0.000      0.000     -0.020      0.000
          IF   3915.000      8.304      0.000      9.595      0.000      0.000      0.000      0.000     -0.007      0.000
          IF   3932.000      8.251      0.000      9.595      0.000      0.000      0.000      0.000      0.003      0.000
          IF   3954.500      8.415      0.000      9.595      0.000      0.000      0.000      0.000      0.001      0.000
          IF   3971.500      8.287      0.000      9.595      0.000      0.000      0.000      0.000      0.037      0.000
          IF   3976.000      9.206      0.000      9.595      0.000      0.000      0.000      0.000      0.077      0.000
          IF   3986.000      9.400      0.000      9.595      0.000      0.000      0.000      0.000     -0.004      0.000
          IF   4004.000      9.108      0.000      9.595      0.000      0.000      0.000      0.000     -0.006      0.000
          IF   4029.000      9.140      0.000      9.595      0.000      0.000      0.000      0.000      0.014      0.000
          IF   4039.600      9.595      0.000      9.595      0.000      0.000      0.000      0.000      0.043      0.000
          AS   4073.900      9.595      0.000      9.595      0.000      0.000      0.000      0.000     -0.010      0.000
          IF   4075.000      9.583      0.000      9.595      0.000      0.000      0.000      0.000      0.000      0.000
          IF   4075.300      9.595      0.000      9.595      0.000      0.000      0.000      0.000      0.038      0.000
          AS   4123.100      9.604      0.000      9.604      0.000      0.000      0.000      0.000     -0.009      0.000
          IF   4129.000      9.550      0.000      9.604      0.000      0.000      0.000      0.000      0.000      0.000
          IF   4129.700      9.604      0.000      9.604      0.000      0.000      0.000      0.000      0.077      0.000
          AS   4206.700      9.604      0.000      9.604      0.000      0.000      0.000      0.000     -0.144      0.000
          IF   4210.500      9.058      0.000      9.604      0.000      0.000      0.000      0.000     -0.049      0.000
          IF   4222.000      8.861      0.000      9.604      0.000      0.000      0.000      0.000      0.015      0.000
          IF   4232.500      9.387      0.000      9.604      0.000      0.000      0.000      0.000      0.049      0.000
          IF   4237.000      9.604      0.000      9.604      0.000      0.000      0.000      0.000      0.048      0.000
          AS   4270.400      9.603      0.000      9.603      0.000      0.000      0.000      0.000     -0.083      0.000
          IF   4276.000      9.140      0.000      9.603      0.000      0.000      0.000      0.000     -0.022      0.000
          IF   4286.000      9.255      0.000      9.603      0.000      0.000      0.000      0.000     -0.021      0.000
          IF   4296.000      8.730      0.000      9.603      0.000      0.000      0.000      0.000     -0.022      0.000
          IF   4303.000      8.875      0.000      9.603      0.000      0.000      0.000      0.000      0.024      0.000
          IF   4314.000      9.170      0.000      9.603      0.000      0.000      0.000      0.000     -0.010      0.000
          IF   4326.500      8.645      0.000      9.604      0.000      0.000      0.000      0.000     -0.011      0.000
          IF   4338.000      8.911      0.000      9.604      0.000      0.000      0.000      0.000      0.029      0.000
          IF   4347.000      9.236      0.000      9.604      0.000      0.000      0.000      0.000      0.010      0.000
          IF   4360.000      9.140      0.000      9.604      0.000      0.000      0.000      0.000     -0.017      0.000
          IF   4374.500      8.776      0.000      9.604      0.000      0.000      0.000      0.000      0.022      0.000
          IF   4379.000      9.567      0.000      9.604      0.000      0.000      0.000      0.000      0.032      0.000
          IF   4386.000      9.140      0.000      9.604      0.000      0.000      0.000      0.000     -0.013      0.000
          IF   4401.500      9.272      0.000      9.604      0.000      0.000      0.000      0.000      0.013      0.000
          IF   4416.500      9.531      0.000      9.604      0.000      0.000      0.000      0.000      0.020      0.000
          IF   4417.900      9.604      0.000      9.604      0.000      0.000      0.000      0.000      0.052      0.000
          AS   4438.600      9.604      0.000      9.604      0.000      0.000      0.000      0.000     -0.076      0.000
          IF   4446.000      9.042      0.000      9.604      0.000      0.000      0.000      0.000      0.000      0.000
          IF   4453.900      9.604      0.000      9.604      0.000      0.000      0.000      0.000      0.071      0.000
          ET      0.000      0.000      0.000      0.000      0.000      0.000      0.000      0.000      0.000      0.000
1


            END        END      FETCH SURGE ELEV SURGE ELEV    INITIAL    INITIAL                BOTTOM    AVERAGE
        STATION  ELEVATION     LENGTH    10-YEAR   100-YEAR WAVE HEIGHT  W. PERIOD                SLOPE    A-ZONES
  IE      0.000    -13.335      1.000      1.000      9.360      9.182     13.209     56.140      0.007      0.000


            END        END  NEW SURGE  NEW SURGE                                                 BOTTOM    AVERAGE
        STATION  ELEVATION    10-YEAR   100-YEAR                                                  SLOPE    A-ZONES
  OF      3.000    -13.315      0.000      9.360      0.000      0.000      0.000      0.000      0.007      0.000


            END        END  NEW SURGE  NEW SURGE                                                 BOTTOM    AVERAGE
        STATION  ELEVATION    10-YEAR   100-YEAR                                                  SLOPE    A-ZONES
  OF      4.000    -13.309      0.000      9.360      0.000      0.000      0.000      0.000      0.007      0.000


            END        END  NEW SURGE  NEW SURGE                                                 BOTTOM    AVERAGE
        STATION  ELEVATION    10-YEAR   100-YEAR                                                  SLOPE    A-ZONES
  OF      9.000    -13.276      0.000      9.360      0.000      0.000      0.000      0.000      0.007      0.000


            END        END  NEW SURGE  NEW SURGE                                                 BOTTOM    AVERAGE
        STATION  ELEVATION    10-YEAR   100-YEAR                                                  SLOPE    A-ZONES
  OF     10.000    -13.270      0.000      9.360      0.000      0.000      0.000      0.000      0.007      0.000


            END        END  NEW SURGE  NEW SURGE                                                 BOTTOM    AVERAGE
        STATION  ELEVATION    10-YEAR   100-YEAR                                                  SLOPE    A-ZONES
  OF     15.000    -13.237      0.000      9.360      0.000      0.000      0.000      0.000      0.007      0.000


            END        END  NEW SURGE  NEW SURGE                                                 BOTTOM    AVERAGE
        STATION  ELEVATION    10-YEAR   100-YEAR                                                  SLOPE    A-ZONES
  OF     16.000    -13.231      0.000      9.360      0.000      0.000      0.000      0.000      0.007      0.000


            END        END  NEW SURGE  NEW SURGE                                                 BOTTOM    AVERAGE
        STATION  ELEVATION    10-YEAR   100-YEAR                                                  SLOPE    A-ZONES
  OF     21.000    -13.198      0.000      9.360      0.000      0.000      0.000      0.000      0.007      0.000


            END        END  NEW SURGE  NEW SURGE                                                 BOTTOM    AVERAGE
        STATION  ELEVATION    10-YEAR   100-YEAR                                                  SLOPE    A-ZONES
  OF     22.000    -13.192      0.000      9.360      0.000      0.000      0.000      0.000      0.006      0.000


            END        END  NEW SURGE  NEW SURGE                                                 BOTTOM    AVERAGE
        STATION  ELEVATION    10-YEAR   100-YEAR                                                  SLOPE    A-ZONES
  OF     27.000    -13.160      0.000      9.360      0.000      0.000      0.000      0.000      0.007      0.000


            END        END  NEW SURGE  NEW SURGE                                                 BOTTOM    AVERAGE
        STATION  ELEVATION    10-YEAR   100-YEAR                                                  SLOPE    A-ZONES
  OF     28.000    -13.153      0.000      9.360      0.000      0.000      0.000      0.000      0.007      0.000


            END        END  NEW SURGE  NEW SURGE                                                 BOTTOM    AVERAGE
        STATION  ELEVATION    10-YEAR   100-YEAR                                                  SLOPE    A-ZONES
  OF     33.000    -13.121      0.000      9.360      0.000      0.000      0.000      0.000      0.007      0.000


            END        END  NEW SURGE  NEW SURGE                                                 BOTTOM    AVERAGE
        STATION  ELEVATION    10-YEAR   100-YEAR                                                  SLOPE    A-ZONES
  OF     34.000    -13.114      0.000      9.360      0.000      0.000      0.000      0.000      0.007      0.000


            END        END  NEW SURGE  NEW SURGE                                                 BOTTOM    AVERAGE
        STATION  ELEVATION    10-YEAR   100-YEAR                                                  SLOPE    A-ZONES
  OF     39.000    -13.082      0.000      9.360      0.000      0.000      0.000      0.000      0.007      0.000


            END        END  NEW SURGE  NEW SURGE                                                 BOTTOM    AVERAGE
        STATION  ELEVATION    10-YEAR   100-YEAR                                                  SLOPE    A-ZONES
  OF     40.000    -13.075      0.000      9.360      0.000      0.000      0.000      0.000      0.007      0.000


            END        END  NEW SURGE  NEW SURGE                                                 BOTTOM    AVERAGE
        STATION  ELEVATION    10-YEAR   100-YEAR                                                  SLOPE    A-ZONES
  OF     45.000    -13.043      0.000      9.360      0.000      0.000      0.000      0.000      0.007      0.000


            END        END  NEW SURGE  NEW SURGE                                                 BOTTOM    AVERAGE
        STATION  ELEVATION    10-YEAR   100-YEAR                                                  SLOPE    A-ZONES
  OF     46.000    -13.036      0.000      9.360      0.000      0.000      0.000      0.000      0.007      0.000


            END        END  NEW SURGE  NEW SURGE                                                 BOTTOM    AVERAGE
        STATION  ELEVATION    10-YEAR   100-YEAR                                                  SLOPE    A-ZONES
  OF     51.000    -13.004      0.000      9.360      0.000      0.000      0.000      0.000      0.007      0.000


            END        END  NEW SURGE  NEW SURGE                                                 BOTTOM    AVERAGE
        STATION  ELEVATION    10-YEAR   100-YEAR                                                  SLOPE    A-ZONES
  OF     52.000    -12.997      0.000      9.360      0.000      0.000      0.000      0.000      0.009      0.000


            END        END  NEW SURGE  NEW SURGE                                                 BOTTOM    AVERAGE
        STATION  ELEVATION    10-YEAR   100-YEAR                                                  SLOPE    A-ZONES
  OF     57.000    -12.951      0.000      9.360      0.000      0.000      0.000      0.000      0.010      0.000


            END        END  NEW SURGE  NEW SURGE                                                 BOTTOM    AVERAGE
        STATION  ELEVATION    10-YEAR   100-YEAR                                                  SLOPE    A-ZONES
  OF     58.000    -12.937      0.000      9.361      0.000      0.000      0.000      0.000      0.014      0.000


            END        END  NEW SURGE  NEW SURGE                                                 BOTTOM    AVERAGE
        STATION  ELEVATION    10-YEAR   100-YEAR                                                  SLOPE    A-ZONES
  OF     63.000    -12.865      0.000      9.361      0.000      0.000      0.000      0.000      0.014      0.000


            END        END  NEW SURGE  NEW SURGE                                                 BOTTOM    AVERAGE
        STATION  ELEVATION    10-YEAR   100-YEAR                                                  SLOPE    A-ZONES
  OF     64.000    -12.851      0.000      9.361      0.000      0.000      0.000      0.000      0.014      0.000


            END        END  NEW SURGE  NEW SURGE                                                 BOTTOM    AVERAGE
        STATION  ELEVATION    10-YEAR   100-YEAR                                                  SLOPE    A-ZONES
  OF     69.000    -12.780      0.000      9.361      0.000      0.000      0.000      0.000      0.014      0.000


            END        END  NEW SURGE  NEW SURGE                                                 BOTTOM    AVERAGE
        STATION  ELEVATION    10-YEAR   100-YEAR                                                  SLOPE    A-ZONES
  OF     70.000    -12.766      0.000      9.361      0.000      0.000      0.000      0.000      0.011      0.000


            END        END  NEW SURGE  NEW SURGE                                                 BOTTOM    AVERAGE
        STATION  ELEVATION    10-YEAR   100-YEAR                                                  SLOPE    A-ZONES
  OF     76.000    -12.701      0.000      9.361      0.000      0.000      0.000      0.000      0.011      0.000


            END        END  NEW SURGE  NEW SURGE                                                 BOTTOM    AVERAGE
        STATION  ELEVATION    10-YEAR   100-YEAR                                                  SLOPE    A-ZONES
  OF     79.000    -12.670      0.000      9.361      0.000      0.000      0.000      0.000      0.010      0.000


            END        END  NEW SURGE  NEW SURGE                                                 BOTTOM    AVERAGE
        STATION  ELEVATION    10-YEAR   100-YEAR                                                  SLOPE    A-ZONES
  OF     84.000    -12.617      0.000      9.360      0.000      0.000      0.000      0.000      0.013      0.000


            END        END  NEW SURGE  NEW SURGE                                                 BOTTOM    AVERAGE
        STATION  ELEVATION    10-YEAR   100-YEAR                                                  SLOPE    A-ZONES
  OF     85.000    -12.590      0.000      9.360      0.000      0.000      0.000      0.000      0.027      0.000


            END        END  NEW SURGE  NEW SURGE                                                 BOTTOM    AVERAGE
        STATION  ELEVATION    10-YEAR   100-YEAR                                                  SLOPE    A-ZONES
  OF     90.000    -12.452      0.000      9.360      0.000      0.000      0.000      0.000      0.028      0.000


            END        END  NEW SURGE  NEW SURGE                                                 BOTTOM    AVERAGE
        STATION  ELEVATION    10-YEAR   100-YEAR                                                  SLOPE    A-ZONES
  OF     91.000    -12.424      0.000      9.360      0.000      0.000      0.000      0.000      0.028      0.000


            END        END  NEW SURGE  NEW SURGE                                                 BOTTOM    AVERAGE
        STATION  ELEVATION    10-YEAR   100-YEAR                                                  SLOPE    A-ZONES
  OF     96.000    -12.286      0.000      9.360      0.000      0.000      0.000      0.000      0.027      0.000


            END        END  NEW SURGE  NEW SURGE                                                 BOTTOM    AVERAGE
        STATION  ELEVATION    10-YEAR   100-YEAR                                                  SLOPE    A-ZONES
  OF     97.000    -12.259      0.000      9.360      0.000      0.000      0.000      0.000      0.027      0.000


            END        END  NEW SURGE  NEW SURGE                                                 BOTTOM    AVERAGE
        STATION  ELEVATION    10-YEAR   100-YEAR                                                  SLOPE    A-ZONES
  OF    102.000    -12.121      0.000      9.360      0.000      0.000      0.000      0.000      0.027      0.000


            END        END  NEW SURGE  NEW SURGE                                                 BOTTOM    AVERAGE
        STATION  ELEVATION    10-YEAR   100-YEAR                                                  SLOPE    A-ZONES
  OF    103.000    -12.094      0.000      9.360      0.000      0.000      0.000      0.000      0.027      0.000


            END        END  NEW SURGE  NEW SURGE                                                 BOTTOM    AVERAGE
        STATION  ELEVATION    10-YEAR   100-YEAR                                                  SLOPE    A-ZONES
  OF    108.000    -11.956      0.000      9.360      0.000      0.000      0.000      0.000      0.028      0.000


            END        END  NEW SURGE  NEW SURGE                                                 BOTTOM    AVERAGE
        STATION  ELEVATION    10-YEAR   100-YEAR                                                  SLOPE    A-ZONES
  OF    109.000    -11.928      0.000      9.360      0.000      0.000      0.000      0.000      0.027      0.000


            END        END  NEW SURGE  NEW SURGE                                                 BOTTOM    AVERAGE
        STATION  ELEVATION    10-YEAR   100-YEAR                                                  SLOPE    A-ZONES
  OF    114.000    -11.791      0.000      9.360      0.000      0.000      0.000      0.000      0.027      0.000


            END        END  NEW SURGE  NEW SURGE                                                 BOTTOM    AVERAGE
        STATION  ELEVATION    10-YEAR   100-YEAR                                                  SLOPE    A-ZONES
  OF    115.000    -11.763      0.000      9.360      0.000      0.000      0.000      0.000      0.028      0.000


            END        END  NEW SURGE  NEW SURGE                                                 BOTTOM    AVERAGE
        STATION  ELEVATION    10-YEAR   100-YEAR                                                  SLOPE    A-ZONES
  OF    120.000    -11.625      0.000      9.360      0.000      0.000      0.000      0.000      0.027      0.000


            END        END  NEW SURGE  NEW SURGE                                                 BOTTOM    AVERAGE
        STATION  ELEVATION    10-YEAR   100-YEAR                                                  SLOPE    A-ZONES
  OF    121.000    -11.598      0.000      9.360      0.000      0.000      0.000      0.000      0.027      0.000


            END        END  NEW SURGE  NEW SURGE                                                 BOTTOM    AVERAGE
        STATION  ELEVATION    10-YEAR   100-YEAR                                                  SLOPE    A-ZONES
  OF    126.000    -11.460      0.000      9.359      0.000      0.000      0.000      0.000      0.028      0.000


            END        END  NEW SURGE  NEW SURGE                                                 BOTTOM    AVERAGE
        STATION  ELEVATION    10-YEAR   100-YEAR                                                  SLOPE    A-ZONES
  OF    127.000    -11.432      0.000      9.359      0.000      0.000      0.000      0.000      0.027      0.000


            END        END  NEW SURGE  NEW SURGE                                                 BOTTOM    AVERAGE
        STATION  ELEVATION    10-YEAR   100-YEAR                                                  SLOPE    A-ZONES
  OF    132.000    -11.295      0.000      9.359      0.000      0.000      0.000      0.000      0.027      0.000


            END        END  NEW SURGE  NEW SURGE                                                 BOTTOM    AVERAGE
        STATION  ELEVATION    10-YEAR   100-YEAR                                                  SLOPE    A-ZONES
  OF    133.000    -11.267      0.000      9.359      0.000      0.000      0.000      0.000      0.028      0.000


            END        END  NEW SURGE  NEW SURGE                                                 BOTTOM    AVERAGE
        STATION  ELEVATION    10-YEAR   100-YEAR                                                  SLOPE    A-ZONES
  OF    139.000    -11.102      0.000      9.359      0.000      0.000      0.000      0.000      0.027      0.000


            END        END  NEW SURGE  NEW SURGE                                                 BOTTOM    AVERAGE
        STATION  ELEVATION    10-YEAR   100-YEAR                                                  SLOPE    A-ZONES
  OF    144.000    -10.964      0.000      9.359      0.000      0.000      0.000      0.000      0.028      0.000


            END        END  NEW SURGE  NEW SURGE                                                 BOTTOM    AVERAGE
        STATION  ELEVATION    10-YEAR   100-YEAR                                                  SLOPE    A-ZONES
  OF    145.000    -10.936      0.000      9.359      0.000      0.000      0.000      0.000      0.028      0.000


            END        END  NEW SURGE  NEW SURGE                                                 BOTTOM    AVERAGE
        STATION  ELEVATION    10-YEAR   100-YEAR                                                  SLOPE    A-ZONES
  OF    156.000    -10.633      0.000      9.359      0.000      0.000      0.000      0.000      0.027      0.000


            END        END  NEW SURGE  NEW SURGE                                                 BOTTOM    AVERAGE
        STATION  ELEVATION    10-YEAR   100-YEAR                                                  SLOPE    A-ZONES
  OF    157.000    -10.606      0.000      9.359      0.000      0.000      0.000      0.000      0.027      0.000


            END        END  NEW SURGE  NEW SURGE                                                 BOTTOM    AVERAGE
        STATION  ELEVATION    10-YEAR   100-YEAR                                                  SLOPE    A-ZONES
  OF    168.000    -10.303      0.000      9.359      0.000      0.000      0.000      0.000      0.028      0.000


            END        END  NEW SURGE  NEW SURGE                                                 BOTTOM    AVERAGE
        STATION  ELEVATION    10-YEAR   100-YEAR                                                  SLOPE    A-ZONES
  OF    169.000    -10.275      0.000      9.359      0.000      0.000      0.000      0.000      0.027      0.000


            END        END  NEW SURGE  NEW SURGE                                                 BOTTOM    AVERAGE
        STATION  ELEVATION    10-YEAR   100-YEAR                                                  SLOPE    A-ZONES
  OF    180.000     -9.973      0.000      9.358      0.000      0.000      0.000      0.000      0.027      0.000


            END        END  NEW SURGE  NEW SURGE                                                 BOTTOM    AVERAGE
        STATION  ELEVATION    10-YEAR   100-YEAR                                                  SLOPE    A-ZONES
  OF    181.000     -9.945      0.000      9.358      0.000      0.000      0.000      0.000      0.027      0.000


            END        END  NEW SURGE  NEW SURGE                                                 BOTTOM    AVERAGE
        STATION  ELEVATION    10-YEAR   100-YEAR                                                  SLOPE    A-ZONES
  OF    192.000     -9.642      0.000      9.358      0.000      0.000      0.000      0.000      0.028      0.000


            END        END  NEW SURGE  NEW SURGE                                                 BOTTOM    AVERAGE
        STATION  ELEVATION    10-YEAR   100-YEAR                                                  SLOPE    A-ZONES
  OF    193.000     -9.615      0.000      9.358      0.000      0.000      0.000      0.000      0.028      0.000


            END        END  NEW SURGE  NEW SURGE                                                 BOTTOM    AVERAGE
        STATION  ELEVATION    10-YEAR   100-YEAR                                                  SLOPE    A-ZONES
  OF    204.000     -9.311      0.000      9.358      0.000      0.000      0.000      0.000      0.027      0.000


            END        END  NEW SURGE  NEW SURGE                                                 BOTTOM    AVERAGE
        STATION  ELEVATION    10-YEAR   100-YEAR                                                  SLOPE    A-ZONES
  OF    205.000     -9.284      0.000      9.358      0.000      0.000      0.000      0.000      0.027      0.000


[...]

                                            1133.00          16.30

                                                                          V23  EL=16     130

                                            1144.00          16.30

                                                                          V23  EL=16     130

                                            1157.00          16.29

                                                                          V23  EL=16     130

                                            1168.00          16.29

                                                                          V23  EL=16     130

                                            1262.00          16.28

                                                                          V23  EL=16     130

                                            1276.00          16.25

                                                                          V23  EL=16     130

                                            1277.00          16.24

                                                                          V23  EL=16     130

                                            1338.90          15.50

                                                                          V23  EL=15     130

                                            1374.70          15.07

                                                                          V23  EL=15     130

                                            1377.90          14.91

                                                                          V23  EL=15     130

                                            1381.20          14.63

                                                                          V23  EL=15     130

                                            1383.23          14.50

                                                                          V23  EL=14     130

                                            1397.60          13.58

                                                                          V23  EL=14     130

                                            1399.83          13.50

                                                                          V23  EL=13     130

                                            1400.90          13.46

                                                                          V23  EL=13     130

                                            1404.20          13.35

                                                                          V23  EL=13     130

                                            1407.50          13.23

                                                                          V23  EL=13     130

                                            1410.80          13.10

                                                                          V23  EL=13     130

                                            1414.00          12.98

                                                                          V23  EL=13     130

                                            1417.30          12.79

                                                                          V23  EL=13     130

                                            1420.60          12.57

                                                                          V23  EL=13     130

                                            1421.60          12.50

                                                                          V23  EL=12     130

                                            1423.90          12.35

                                                                          V23  EL=12     130

                                            1427.20          12.21

                                                                          V23  EL=12     130

                                            1430.40          12.09

                                                                          V23  EL=12     130

                                            1433.70          11.98

                                                                          V23  EL=12     130

                                            1437.00          11.97

                                                                          V23  EL=12     130

                                            1440.30          11.96

                                                                          V23  EL=12     130

                                            1443.60          11.94

                                                                          V23  EL=12     130

                                            1446.80          11.80

                                                                          V23  EL=12     130

                                            1448.88          11.68

                                                                          A19  EL=12      95

                                            1450.10          11.62

                                                                          A19  EL=12      95

                                            1453.40          11.53

                                                                          A19  EL=12      95

                                            1456.70          11.54

                                                                          A19  EL=12      95

                                            1460.00          11.54

                                                                          A19  EL=12      95

                                            1463.30          11.53

                                                                          A19  EL=12      95

                                            1466.50          11.56

                                                                          A19  EL=12      95

                                            1469.80          11.60

                                                                          A19  EL=12      95

                                            1471.71          11.50

                                                                          A19  EL=11      95

                                            1473.10          11.43

                                                                          A19  EL=11      95

                                            1476.40          11.34

                                                                          A19  EL=11      95

                                            1479.70          11.32

                                                                          A19  EL=11      95

                                            1482.90          11.29

                                                                          A19  EL=11      95

                                            1486.20          11.29

                                                                          A19  EL=11      95

                                            1489.50          11.29

                                                                          A19  EL=11      95

                                            1492.80          11.29

                                                                          A19  EL=11      95

                                            1496.10          11.29

                                                                          A19  EL=11      95

                                            1499.30          11.29

                                                                          A19  EL=11      95

                                            1502.60          11.29

                                                                          A19  EL=11      95

                                            1505.90          11.30

                                                                          A19  EL=11      95

                                            1509.20          11.31

                                                                          A19  EL=11      95

                                            1512.50          11.33

                                                                          A19  EL=11      95

                                            1515.70          11.36

                                                                          A19  EL=11      95

                                            1519.00          11.39

                                                                          A19  EL=11      95

                                            1522.30          11.40

                                                                          A19  EL=11      95

                                            1525.60          11.38

                                                                          A19  EL=11      95

                                            1528.90          11.37

                                                                          A19  EL=11      95

                                            1532.10          11.34

                                                                          A19  EL=11      95

                                            1535.40          11.14

                                                                          A19  EL=11      95

                                            1538.70          10.92

                                                                          A19  EL=11      95

                                            1541.62          10.50

                                                                          A19  EL=10      95

                                            1542.00          10.44

                                                                          A19  EL=10      95

                                            1543.90           9.98


                                            1681.60           9.60

                                                                          A19  EL=10      95

                                            1692.20           9.61


                                            1705.60           9.60

                                                                          A19  EL=10      95

                                            1712.30           9.61


                                            1816.10           9.58

                                                                          A19  EL=10      95

                                            1905.50           9.78

                                                                          A19  EL=10      95

                                            1916.50           9.80

                                                                          A19  EL=10      95

                                            2051.50           9.94

                                                                          A19  EL=10      95

                                            2066.00           9.97

                                                                          A19  EL=10      95

                                            2118.50          10.03

                                                                          A19  EL=10      95

                                            2135.50          10.04

                                                                          A19  EL=10      95

                                            2160.50          10.06

                                                                          A19  EL=10      95

                                            2185.00          10.09

                                                                          A19  EL=10      95

                                            2215.50          10.09

                                                                          A19  EL=10      95

                                            2297.00          10.18

                                                                          A19  EL=10      95

                                            2311.00          10.20

                                                                          A19  EL=10      95

                                            2364.50          10.23

                                                                          A19  EL=10      95

                                            2374.50          10.24

                                                                          A19  EL=10      95

                                            2477.00          10.34

                                                                          A19  EL=10      95

                                            2489.50          10.35

                                                                          A19  EL=10      95

                                            2570.00          10.41

                                                                          A19  EL=10      95

                                            2580.00          10.42

                                                                          A19  EL=10      95

                                            2604.50          10.43

                                                                          A19  EL=10      95

                                            2612.50          10.44

                                                                          A19  EL=10      95

                                            2638.50          10.46

                                                                          A19  EL=10      95

                                            2661.50          10.48

                                                                          A19  EL=10      95

                                            2670.50          10.48

                                                                          A19  EL=10      95

                                            2684.50          10.49

                                                                          A19  EL=10      95

                                            2694.78          10.50

                                                                          A19  EL=11      95

                                            2720.50          10.51

                                                                          A19  EL=11      95

                                            2729.00          10.52

                                                                          A19  EL=11      95

                                            2754.00          10.54

                                                                          A19  EL=11      95

                                            2764.50          10.55

                                                                          A19  EL=11      95

                                            2802.00          10.57

                                                                          A19  EL=11      95

                                            2816.00          10.58

                                                                          A19  EL=11      95

                                            2843.00          10.60

                                                                          A19  EL=11      95

                                            2854.00          10.61

                                                                          A19  EL=11      95

                                            2873.50          10.62

                                                                          A19  EL=11      95

                                            2887.00          10.63

                                                                          A19  EL=11      95

                                            2924.50          10.65

                                                                          A19  EL=11      95

                                            2932.00          10.66

                                                                          A19  EL=11      95

                                            2987.00          10.69

                                                                          A19  EL=11      95

                                            2997.00          10.70

                                                                          A19  EL=11      95

                                            3104.50          10.76

                                                                          A19  EL=11      95

                                            3116.00          10.77

                                                                          A19  EL=11      95

                                            3210.50          10.81

                                                                          A19  EL=11      95

                                            3230.00          10.82

                                                                          A19  EL=11      95

                                            3352.00          10.89

                                                                          A19  EL=11      95

                                            3368.50          10.90

                                                                          A19  EL=11      95

                                            3850.67          10.50

                                                                          A19  EL=10      95

                                            4039.60           9.60


                                            4073.90           9.60

                                                                          A19  EL=10      95

                                            4075.30           9.60


                                            4123.10           9.60

                                                                          A19  EL=10      95

                                            4129.70           9.61


                                            4206.70           9.60

                                                                          A19  EL=10      95

                                            4237.00           9.61


                                            4270.40           9.60

                                                                          A19  EL=10      95

                                            4314.00           9.72

                                                                          A19  EL=10      95

                                            4326.50           9.75

                                                                          A19  EL=10      95

                                            4417.90           9.61


                                            4438.60           9.60

                                                                          A19  EL=10      95

                                            4453.90           9.61



                                                  ZONE TERMINATED AT END OF TRANSECT



                                                  PART 7   POSTSCRIPT NOTES


                         PS#  1   START(385457.7677,4805531.4406)                                              
                         PS#  2   END(385240.2997,4807040.9122)                                                
