 WAVE HEIGHT COMPUTATIONS FOR FLOOD INSURANCE STUDIES (WHAFIS VERSION 4.0G, 08_2007)
 Executed on: Thu Apr  2 11:05:19 2020
 Input file:  C:\FEMA-TransectAnalysis\LOMR-TransectAnalysis-Kennebunkport\3_whafis\whafis4\YK-109.dat                                        
 Output file: C:\FEMA-TransectAnalysis\LOMR-TransectAnalysis-Kennebunkport\3_whafis\whafis4\YK-109.out                                        



                                                              header                                                                
                                                     THIS IS A 100-YEAR CASE


                                       THE FOLLOWING NON-DEFAULT WIND SPEEDS ARE BEING USED
                                            WINDIF  56.14  WINDOF  56.14  WINDVH  60.00

                                                             PART1 INPUT

          IE      0.000     -5.600      1.000      1.000      9.010     12.098     13.810     56.140      0.015      0.000
          OF      3.300     -5.549      0.000      9.011      0.000      0.000      0.000      0.000      0.015      0.000
          OF      6.600     -5.497      0.000      9.011      0.000      0.000      0.000      0.000      0.016      0.000
          OF      9.800     -5.446      0.000      9.012      0.000      0.000      0.000      0.000      0.016      0.000
          OF     13.100     -5.395      0.000      9.012      0.000      0.000      0.000      0.000      0.015      0.000
          OF     16.400     -5.344      0.000      9.013      0.000      0.000      0.000      0.000      0.015      0.000
          OF     19.700     -5.293      0.000      9.013      0.000      0.000      0.000      0.000      0.015      0.000
          OF     23.000     -5.241      0.000      9.014      0.000      0.000      0.000      0.000      0.016      0.000
          OF     26.200     -5.190      0.000      9.015      0.000      0.000      0.000      0.000      0.016      0.000
          OF     29.500     -5.139      0.000      9.015      0.000      0.000      0.000      0.000      0.015      0.000
          OF     32.800     -5.088      0.000      9.016      0.000      0.000      0.000      0.000      0.014      0.000
          OF     36.100     -5.044      0.000      9.017      0.000      0.000      0.000      0.000      0.011      0.000
          OF     39.400     -5.015      0.000      9.018      0.000      0.000      0.000      0.000      0.009      0.000
          OF     42.700     -4.985      0.000      9.019      0.000      0.000      0.000      0.000      0.009      0.000
          OF     45.900     -4.956      0.000      9.020      0.000      0.000      0.000      0.000      0.009      0.000
          OF     49.200     -4.926      0.000      9.021      0.000      0.000      0.000      0.000      0.009      0.000
          OF     52.500     -4.897      0.000      9.022      0.000      0.000      0.000      0.000      0.009      0.000
          OF     55.800     -4.866      0.000      9.023      0.000      0.000      0.000      0.000      0.010      0.000
          OF     59.100     -4.827      0.000      9.024      0.000      0.000      0.000      0.000      0.012      0.000
          OF     62.300     -4.788      0.000      9.026      0.000      0.000      0.000      0.000      0.012      0.000
          OF     65.600     -4.749      0.000      9.026      0.000      0.000      0.000      0.000      0.012      0.000
          OF     68.900     -4.710      0.000      9.028      0.000      0.000      0.000      0.000      0.012      0.000
          OF     72.200     -4.670      0.000      9.029      0.000      0.000      0.000      0.000      0.012      0.000
          OF     75.500     -4.631      0.000      9.030      0.000      0.000      0.000      0.000      0.012      0.000
          OF     78.700     -4.592      0.000      9.031      0.000      0.000      0.000      0.000      0.012      0.000
          OF     82.000     -4.553      0.000      9.032      0.000      0.000      0.000      0.000      0.012      0.000
          OF     85.300     -4.514      0.000      9.034      0.000      0.000      0.000      0.000      0.012      0.000
          OF     88.600     -4.475      0.000      9.035      0.000      0.000      0.000      0.000      0.012      0.000
          OF     91.900     -4.435      0.000      9.036      0.000      0.000      0.000      0.000      0.012      0.000
          OF     95.100     -4.396      0.000      9.038      0.000      0.000      0.000      0.000      0.012      0.000
          OF     98.400     -4.357      0.000      9.039      0.000      0.000      0.000      0.000      0.012      0.000
          OF    101.700     -4.318      0.000      9.040      0.000      0.000      0.000      0.000      0.012      0.000
          OF    105.000     -4.279      0.000      9.042      0.000      0.000      0.000      0.000      0.012      0.000
          OF    108.300     -4.240      0.000      9.044      0.000      0.000      0.000      0.000      0.012      0.000
          OF    111.500     -4.200      0.000      9.046      0.000      0.000      0.000      0.000      0.012      0.000
          OF    114.800     -4.161      0.000      9.047      0.000      0.000      0.000      0.000      0.010      0.000
          OF    118.100     -4.133      0.000      9.049      0.000      0.000      0.000      0.000      0.005      0.000
          OF    121.400     -4.127      0.000      9.051      0.000      0.000      0.000      0.000      0.002      0.000
          OF    124.700     -4.121      0.000      9.053      0.000      0.000      0.000      0.000      0.002      0.000
          OF    128.000     -4.115      0.000      9.055      0.000      0.000      0.000      0.000      0.002      0.000
          OF    131.200     -4.109      0.000      9.057      0.000      0.000      0.000      0.000      0.002      0.000
          OF    134.500     -4.102      0.000      9.059      0.000      0.000      0.000      0.000      0.002      0.000
          OF    137.800     -4.096      0.000      9.061      0.000      0.000      0.000      0.000      0.002      0.000
          OF    141.100     -4.090      0.000      9.063      0.000      0.000      0.000      0.000      0.002      0.000
          OF    144.400     -4.084      0.000      9.064      0.000      0.000      0.000      0.000      0.002      0.000
          OF    147.600     -4.078      0.000      9.066      0.000      0.000      0.000      0.000      0.002      0.000
          OF    150.900     -4.072      0.000      9.067      0.000      0.000      0.000      0.000      0.002      0.000
          OF    154.200     -4.066      0.000      9.069      0.000      0.000      0.000      0.000      0.002      0.000
          OF    157.500     -4.060      0.000      9.070      0.000      0.000      0.000      0.000      0.002      0.000
          OF    160.800     -4.054      0.000      9.072      0.000      0.000      0.000      0.000      0.002      0.000
          OF    164.000     -4.048      0.000      9.073      0.000      0.000      0.000      0.000      0.002      0.000
          OF    167.300     -4.042      0.000      9.075      0.000      0.000      0.000      0.000      0.002      0.000
          OF    170.600     -4.036      0.000      9.076      0.000      0.000      0.000      0.000      0.002      0.000
          OF    173.900     -4.030      0.000      9.077      0.000      0.000      0.000      0.000      0.002      0.000
          OF    177.200     -4.024      0.000      9.079      0.000      0.000      0.000      0.000      0.002      0.000
          OF    180.400     -4.018      0.000      9.080      0.000      0.000      0.000      0.000      0.002      0.000
          OF    183.700     -4.012      0.000      9.082      0.000      0.000      0.000      0.000      0.002      0.000
          OF    187.000     -4.006      0.000      9.083      0.000      0.000      0.000      0.000      0.001      0.000
          OF    190.300     -4.007      0.000      9.085      0.000      0.000      0.000      0.000      0.003      0.000
          OF    193.600     -3.987      0.000      9.086      0.000      0.000      0.000      0.000      0.016      0.000
          OF    196.800     -3.902      0.000      9.086      0.000      0.000      0.000      0.000      0.026      0.000
          OF    200.100     -3.818      0.000      9.087      0.000      0.000      0.000      0.000      0.026      0.000
          OF    203.400     -3.733      0.000      9.087      0.000      0.000      0.000      0.000      0.026      0.000
          OF    206.700     -3.649      0.000      9.088      0.000      0.000      0.000      0.000      0.026      0.000
          OF    210.000     -3.564      0.000      9.089      0.000      0.000      0.000      0.000      0.026      0.000
          OF    213.300     -3.480      0.000      9.090      0.000      0.000      0.000      0.000      0.026      0.000
          OF    216.500     -3.395      0.000      9.091      0.000      0.000      0.000      0.000      0.026      0.000
          OF    219.800     -3.311      0.000      9.092      0.000      0.000      0.000      0.000      0.026      0.000
          OF    223.100     -3.226      0.000      9.093      0.000      0.000      0.000      0.000      0.026      0.000
          OF    226.400     -3.141      0.000      9.094      0.000      0.000      0.000      0.000      0.026      0.000
          OF    229.700     -3.057      0.000      9.095      0.000      0.000      0.000      0.000      0.026      0.000
          OF    232.900     -2.972      0.000      9.096      0.000      0.000      0.000      0.000      0.026      0.000
          OF    236.200     -2.888      0.000      9.097      0.000      0.000      0.000      0.000      0.026      0.000
          OF    239.500     -2.803      0.000      9.099      0.000      0.000      0.000      0.000      0.026      0.000
          OF    242.800     -2.719      0.000      9.100      0.000      0.000      0.000      0.000      0.026      0.000
          OF    246.100     -2.634      0.000      9.101      0.000      0.000      0.000      0.000      0.026      0.000
          OF    249.300     -2.550      0.000      9.102      0.000      0.000      0.000      0.000      0.026      0.000
          OF    252.600     -2.465      0.000      9.104      0.000      0.000      0.000      0.000      0.026      0.000
          OF    255.900     -2.381      0.000      9.105      0.000      0.000      0.000      0.000      0.026      0.000
          OF    259.200     -2.296      0.000      9.107      0.000      0.000      0.000      0.000      0.026      0.000
          OF    262.500     -2.208      0.000      9.108      0.000      0.000      0.000      0.000      0.029      0.000
          OF    265.700     -2.108      0.000      9.110      0.000      0.000      0.000      0.000      0.031      0.000
          OF    269.000     -2.007      0.000      9.111      0.000      0.000      0.000      0.000      0.024      0.000
          OF    272.300     -1.947      0.000      9.113      0.000      0.000      0.000      0.000      0.017      0.000
          OF    275.600     -1.897      0.000      9.115      0.000      0.000      0.000      0.000      0.015      0.000
          OF    278.900     -1.847      0.000      9.117      0.000      0.000      0.000      0.000      0.015      0.000
          OF    282.200     -1.797      0.000      9.119      0.000      0.000      0.000      0.000      0.015      0.000
          OF    285.400     -1.747      0.000      9.122      0.000      0.000      0.000      0.000      0.015      0.000
          OF    288.700     -1.696      0.000      9.123      0.000      0.000      0.000      0.000      0.015      0.000
          OF    292.000     -1.646      0.000      9.126      0.000      0.000      0.000      0.000      0.015      0.000
          OF    295.300     -1.596      0.000      9.128      0.000      0.000      0.000      0.000      0.016      0.000
          OF    298.600     -1.543      0.000      9.130      0.000      0.000      0.000      0.000      0.017      0.000
          OF    301.800     -1.489      0.000      9.132      0.000      0.000      0.000      0.000      0.017      0.000
          OF    305.100     -1.434      0.000      9.134      0.000      0.000      0.000      0.000      0.016      0.000
          OF    308.400     -1.380      0.000      9.136      0.000      0.000      0.000      0.000      0.016      0.000
          OF    311.700     -1.326      0.000      9.138      0.000      0.000      0.000      0.000      0.016      0.000
          OF    315.000     -1.271      0.000      9.140      0.000      0.000      0.000      0.000      0.017      0.000
          OF    318.200     -1.217      0.000      9.142      0.000      0.000      0.000      0.000      0.017      0.000
          OF    321.500     -1.163      0.000      9.144      0.000      0.000      0.000      0.000      0.016      0.000
          OF    324.800     -1.108      0.000      9.146      0.000      0.000      0.000      0.000      0.016      0.000
          OF    328.100     -1.054      0.000      9.148      0.000      0.000      0.000      0.000      0.016      0.000
          OF    331.400     -1.000      0.000      9.150      0.000      0.000      0.000      0.000      0.017      0.000
          OF    334.600     -0.945      0.000      9.152      0.000      0.000      0.000      0.000      0.017      0.000
          OF    337.900     -0.891      0.000      9.154      0.000      0.000      0.000      0.000      0.016      0.000
          OF    341.200     -0.837      0.000      9.156      0.000      0.000      0.000      0.000      0.016      0.000
          OF    344.500     -0.782      0.000      9.158      0.000      0.000      0.000      0.000      0.016      0.000
          OF    347.800     -0.728      0.000      9.160      0.000      0.000      0.000      0.000      0.017      0.000
          OF    351.000     -0.674      0.000      9.162      0.000      0.000      0.000      0.000      0.017      0.000
          OF    354.300     -0.619      0.000      9.165      0.000      0.000      0.000      0.000      0.016      0.000
          OF    357.600     -0.565      0.000      9.167      0.000      0.000      0.000      0.000      0.016      0.000
          OF    360.900     -0.511      0.000      9.168      0.000      0.000      0.000      0.000      0.016      0.000
          OF    364.200     -0.456      0.000      9.171      0.000      0.000      0.000      0.000      0.017      0.000
          OF    367.500     -0.397      0.000      9.173      0.000      0.000      0.000      0.000      0.021      0.000
          OF    370.700     -0.320      0.000      9.175      0.000      0.000      0.000      0.000      0.024      0.000
          OF    374.000     -0.243      0.000      9.177      0.000      0.000      0.000      0.000      0.023      0.000
          OF    377.300     -0.166      0.000      9.179      0.000      0.000      0.000      0.000      0.023      0.000
          OF    380.600     -0.089      0.000      9.181      0.000      0.000      0.000      0.000      0.023      0.000
          OF    383.900     -0.012      0.000      9.183      0.000      0.000      0.000      0.000      0.023      0.000
          IF    387.100      0.063      0.000      9.185      0.000      0.000      0.000      0.000      0.020      0.000
          IF    390.400      0.119      0.000      9.187      0.000      0.000      0.000      0.000      0.013      0.000
          IF    393.700      0.151      0.000      9.190      0.000      0.000      0.000      0.000      0.010      0.000
          IF    397.000      0.184      0.000      9.193      0.000      0.000      0.000      0.000      0.009      0.000
          IF    400.300      0.209      0.000      9.195      0.000      0.000      0.000      0.000      0.006      0.000
          IF    403.500      0.223      0.000      9.198      0.000      0.000      0.000      0.000      0.006      0.000
          IF    406.800      0.247      0.000      9.201      0.000      0.000      0.000      0.000      0.020      0.000
          IF    410.100      0.354      0.000      9.202      0.000      0.000      0.000      0.000      0.033      0.000
          IF    413.400      0.462      0.000      9.204      0.000      0.000      0.000      0.000      0.036      0.000
          IF    416.700      0.593      0.000      9.206      0.000      0.000      0.000      0.000      0.042      0.000
          IF    419.900      0.737      0.000      9.207      0.000      0.000      0.000      0.000      0.044      0.000
          IF    423.200      0.880      0.000      9.208      0.000      0.000      0.000      0.000      0.037      0.000
          IF    426.500      0.983      0.000      9.211      0.000      0.000      0.000      0.000      0.024      0.000
          IF    429.800      1.037      0.000      9.214      0.000      0.000      0.000      0.000      0.016      0.000
          IF    433.100      1.090      0.000      9.217      0.000      0.000      0.000      0.000      0.023      0.000
          IF    436.400      1.191      0.000      9.219      0.000      0.000      0.000      0.000      0.041      0.000
          IF    439.600      1.357      0.000      9.221      0.000      0.000      0.000      0.000      0.051      0.000
          IF    442.900      1.523      0.000      9.223      0.000      0.000      0.000      0.000      0.049      0.000
          IF    446.200      1.681      0.000      9.226      0.000      0.000      0.000      0.000      0.027      0.000
          IF    449.500      1.699      0.000      9.230      0.000      0.000      0.000      0.000      0.005      0.000
          IF    452.800      1.717      0.000      9.235      0.000      0.000      0.000      0.000      0.005      0.000
          IF    456.000      1.735      0.000      9.239      0.000      0.000      0.000      0.000      0.015      0.000
          IF    459.300      1.814      0.000      9.242      0.000      0.000      0.000      0.000      0.038      0.000
          IF    462.600      1.987      0.000      9.244      0.000      0.000      0.000      0.000      0.052      0.000
          IF    465.900      2.159      0.000      9.247      0.000      0.000      0.000      0.000      0.046      0.000
          IF    469.200      2.290      0.000      9.250      0.000      0.000      0.000      0.000      0.029      0.000
          IF    472.400      2.347      0.000      9.254      0.000      0.000      0.000      0.000      0.017      0.000
          IF    475.700      2.404      0.000      9.258      0.000      0.000      0.000      0.000      0.016      0.000
          IF    479.000      2.455      0.000      9.263      0.000      0.000      0.000      0.000      0.015      0.000
          IF    482.300      2.500      0.000      9.267      0.000      0.000      0.000      0.000      0.014      0.000
          IF    485.600      2.546      0.000      9.272      0.000      0.000      0.000      0.000      0.022      0.000
          IF    488.800      2.646      0.000      9.275      0.000      0.000      0.000      0.000      0.038      0.000
          IF    492.100      2.790      0.000      9.278      0.000      0.000      0.000      0.000      0.039      0.000
          IF    495.400      2.906      0.000      9.281      0.000      0.000      0.000      0.000      0.024      0.000
          IF    498.700      2.949      0.000      9.286      0.000      0.000      0.000      0.000      0.023      0.000
          IF    502.000      3.056      0.000      9.290      0.000      0.000      0.000      0.000      0.033      0.000
          IF    505.200      3.161      0.000      9.294      0.000      0.000      0.000      0.000      0.020      0.000
          IF    508.500      3.184      0.000      9.299      0.000      0.000      0.000      0.000      0.007      0.000
          IF    511.800      3.207      0.000      9.304      0.000      0.000      0.000      0.000      0.012      0.000
          IF    515.100      3.264      0.000      9.308      0.000      0.000      0.000      0.000      0.028      0.000
          IF    518.400      3.391      0.000      9.311      0.000      0.000      0.000      0.000      0.038      0.000
          IF    521.700      3.517      0.000      9.314      0.000      0.000      0.000      0.000      0.026      0.000
          IF    524.900      3.562      0.000      9.319      0.000      0.000      0.000      0.000      0.009      0.000
          IF    528.200      3.579      0.000      9.325      0.000      0.000      0.000      0.000      0.009      0.000
          IF    531.500      3.619      0.000      9.329      0.000      0.000      0.000      0.000      0.013      0.000
          IF    534.800      3.667      0.000      9.333      0.000      0.000      0.000      0.000      0.015      0.000
          IF    538.100      3.716      0.000      9.337      0.000      0.000      0.000      0.000      0.025      0.000
          IF    541.300      3.830      0.000      9.340      0.000      0.000      0.000      0.000      0.035      0.000
          IF    544.600      3.944      0.000      9.343      0.000      0.000      0.000      0.000      0.034      0.000
          IF    547.900      4.055      0.000      9.347      0.000      0.000      0.000      0.000      0.033      0.000
          IF    551.200      4.163      0.000      9.350      0.000      0.000      0.000      0.000     -0.007      0.000
          IF    554.500      4.011      0.000      9.358      0.000      0.000      0.000      0.000      0.037      0.000
          IF    557.700      4.404      0.000      9.356      0.000      0.000      0.000      0.000      0.054      0.000
          IF    561.000      4.361      0.000      9.363      0.000      0.000      0.000      0.000      0.024      0.000
          IF    564.300      4.564      0.000      9.366      0.000      0.000      0.000      0.000      0.044      0.000
          IF    567.600      4.654      0.000      9.370      0.000      0.000      0.000      0.000      0.059      0.000
          IF    570.900      4.955      0.000      9.372      0.000      0.000      0.000      0.000      0.125      0.000
          IF    574.100      5.463      0.000      9.370      0.000      0.000      0.000      0.000      0.119      0.000
          IF    577.400      5.726      0.000      9.378      0.000      0.000      0.000      0.000      0.075      0.000
          IF    580.700      5.958      0.000      9.390      0.000      0.000      0.000      0.000      0.068      0.000
          IF    584.000      6.174      0.000      9.403      0.000      0.000      0.000      0.000      0.065      0.000
          IF    587.300      6.389      0.000      9.419      0.000      0.000      0.000      0.000      0.049      0.000
          IF    590.500      6.492      0.000      9.439      0.000      0.000      0.000      0.000      0.013      0.000
          IF    593.800      6.471      0.000      9.459      0.000      0.000      0.000      0.000      0.053      0.000
          IF    597.100      6.844      0.000      9.468      0.000      0.000      0.000      0.000      0.063      0.000
          IF    600.400      6.883      0.000      9.490      0.000      0.000      0.000      0.000      0.020      0.000
          IF    603.700      6.976      0.000      9.507      0.000      0.000      0.000      0.000      0.034      0.000
          IF    607.000      7.105      0.000      9.522      0.000      0.000      0.000      0.000      0.033      0.000
          IF    610.200      7.191      0.000      9.537      0.000      0.000      0.000      0.000     -0.010      0.000
          IF    613.500      7.042      0.000      9.556      0.000      0.000      0.000      0.000     -0.037      0.000
          IF    616.800      6.949      0.000      9.568      0.000      0.000      0.000      0.000      0.000      0.000
          IF    620.100      7.040      0.000      9.573      0.000      0.000      0.000      0.000      0.009      0.000
          IF    623.400      7.006      0.000      9.580      0.000      0.000      0.000      0.000      0.025      0.000
          IF    626.600      7.201      0.000      9.583      0.000      0.000      0.000      0.000      0.061      0.000
          IF    629.900      7.404      0.000      9.587      0.000      0.000      0.000      0.000      0.057      0.000
          IF    633.200      7.576      0.000      9.594      0.000      0.000      0.000      0.000      0.037      0.000
          IF    636.500      7.651      0.000      9.603      0.000      0.000      0.000      0.000      0.020      0.000
          IF    639.800      7.707      0.000      9.614      0.000      0.000      0.000      0.000      0.024      0.000
          IF    643.000      7.809      0.000      9.623      0.000      0.000      0.000      0.000      0.031      0.000
          IF    646.300      7.911      0.000      9.631      0.000      0.000      0.000      0.000      0.038      0.000
          IF    649.600      8.058      0.000      9.641      0.000      0.000      0.000      0.000      0.058      0.000
          IF    652.900      8.292      0.000      9.650      0.000      0.000      0.000      0.000      0.071      0.000
          IF    656.200      8.526      0.000      9.672      0.000      0.000      0.000      0.000      0.072      0.000
          IF    659.400      8.760      0.000      9.700      0.000      0.000      0.000      0.000      0.146      0.000
          IF    662.700      9.475      0.000      9.818      0.000      0.000      0.000      0.000      0.225      0.000
          IF    664.100      9.818      0.000      9.818      0.000      0.000      0.000      0.000      0.245      0.000
          AS   1068.200      9.196      0.000      9.196      0.000      0.000      0.000      0.000     -0.052      0.000
          IF   1071.500      9.026      0.000      9.196      0.000      0.000      0.000      0.000      0.000      0.000
          IF   1073.900      9.196      0.000      9.196      0.000      0.000      0.000      0.000      0.071      0.000
          AS   1088.100      9.196      0.000      9.196      0.000      0.000      0.000      0.000     -0.180      0.000
          IF   1088.500      9.124      0.000      9.196      0.000      0.000      0.000      0.000      0.000      0.000
          IF   1093.000      9.196      0.000      9.196      0.000      0.000      0.000      0.000      0.016      0.000
          AS   1149.900      9.150      0.000      9.150      0.000      0.000      0.000      0.000     -0.046      0.000
          IF   1154.000      8.960      0.000      9.150      0.000      0.000      0.000      0.000     -0.033      0.000
          IF   1186.000      7.943      0.000      9.150      0.000      0.000      0.000      0.000     -0.002      0.000
          IF   1214.500      8.861      0.000      9.150      0.000      0.000      0.000      0.000      0.006      0.000
          IF   1225.500      8.179      0.000      9.150      0.000      0.000      0.000      0.000     -0.033      0.000
          IF   1240.500      8.012      0.000      9.150      0.000      0.000      0.000      0.000     -0.022      0.000
          IF   1257.500      7.487      0.000      9.151      0.000      0.000      0.000      0.000     -0.004      0.000
          IF   1272.000      7.884      0.000      9.151      0.000      0.000      0.000      0.000      0.006      0.000
          IF   1284.000      7.654      0.000      9.151      0.000      0.000      0.000      0.000     -0.012      0.000
          IF   1299.500      7.552      0.000      9.151      0.000      0.000      0.000      0.000     -0.001      0.000
          IF   1310.500      7.618      0.000      9.151      0.000      0.000      0.000      0.000      0.023      0.000
          IF   1317.000      7.950      0.000      9.151      0.000      0.000      0.000      0.000      0.036      0.000
          IF   1322.500      8.045      0.000      9.151      0.000      0.000      0.000      0.000     -0.015      0.000
          IF   1336.500      7.651      0.000      9.151      0.000      0.000      0.000      0.000     -0.020      0.000
          IF   1353.500      7.424      0.000      9.150      0.000      0.000      0.000      0.000     -0.001      0.000
          IF   1382.500      7.585      0.000      9.150      0.000      0.000      0.000      0.000      0.005      0.000
          IF   1395.000      7.618      0.000      9.150      0.000      0.000      0.000      0.000     -0.004      0.000
          IF   1405.000      7.487      0.000      9.150      0.000      0.000      0.000      0.000     -0.010      0.000
          IF   1415.500      7.421      0.000      9.150      0.000      0.000      0.000      0.000      0.086      0.000
          IF   1424.000      9.127      0.000      9.149      0.000      0.000      0.000      0.000      0.040      0.000
          IF   1428.500      7.946      0.000      9.149      0.000      0.000      0.000      0.000     -0.061      0.000
          IF   1437.000      8.340      0.000      9.149      0.000      0.000      0.000      0.000     -0.020      0.000
          IF   1448.500      7.552      0.000      9.149      0.000      0.000      0.000      0.000     -0.043      0.000
          IF   1457.500      7.454      0.000      9.149      0.000      0.000      0.000      0.000      0.014      0.000
          IF   1465.000      7.782      0.000      9.149      0.000      0.000      0.000      0.000      0.000      0.000
          IF   1470.000      7.454      0.000      9.149      0.000      0.000      0.000      0.000      0.082      0.000
          IF   1481.000      9.094      0.000      9.149      0.000      0.000      0.000      0.000     -0.011      0.000
          IF   1497.500      7.159      0.000      9.149      0.000      0.000      0.000      0.000     -0.098      0.000
          IF   1508.500      6.404      0.000      9.149      0.000      0.000      0.000      0.000     -0.041      0.000
          IF   1517.500      6.339      0.000      9.149      0.000      0.000      0.000      0.000     -0.009      0.000
          IF   1524.000      6.273      0.000      9.149      0.000      0.000      0.000      0.000      0.016      0.000
          IF   1530.000      6.535      0.000      9.149      0.000      0.000      0.000      0.000      0.030      0.000
          IF   1535.000      6.601      0.000      9.149      0.000      0.000      0.000      0.000     -0.005      0.000
          IF   1542.000      6.470      0.000      9.149      0.000      0.000      0.000      0.000     -0.022      0.000
          IF   1550.000      6.273      0.000      9.149      0.000      0.000      0.000      0.000     -0.013      0.000
          IF   1559.500      6.240      0.000      9.149      0.000      0.000      0.000      0.000     -0.005      0.000
          IF   1571.000      6.174      0.000      9.149      0.000      0.000      0.000      0.000     -0.015      0.000
          IF   1577.000      5.978      0.000      9.150      0.000      0.000      0.000      0.000     -0.013      0.000
          IF   1581.500      6.043      0.000      9.150      0.000      0.000      0.000      0.000     -0.009      0.000
          IF   1587.500      5.879      0.000      9.150      0.000      0.000      0.000      0.000     -0.006      0.000
          IF   1592.000      5.978      0.000      9.150      0.000      0.000      0.000      0.000     -0.050      0.000
          IF   1598.000      5.354      0.000      9.150      0.000      0.000      0.000      0.000     -0.060      0.000
          IF   1604.000      5.256      0.000      9.150      0.000      0.000      0.000      0.000     -0.026      0.000
          IF   1610.500      5.026      0.000      9.151      0.000      0.000      0.000      0.000     -0.014      0.000
          IF   1618.000      5.059      0.000      9.151      0.000      0.000      0.000      0.000     -0.002      0.000
          IF   1624.000      4.993      0.000      9.151      0.000      0.000      0.000      0.000     -0.008      0.000
          IF   1631.000      4.961      0.000      9.151      0.000      0.000      0.000      0.000      0.027      0.000
          IF   1636.000      5.321      0.000      9.151      0.000      0.000      0.000      0.000      0.041      0.000
          IF   1639.000      5.289      0.000      9.151      0.000      0.000      0.000      0.000     -0.021      0.000
          IF   1651.500      4.993      0.000      9.151      0.000      0.000      0.000      0.000     -0.043      0.000
          IF   1664.000      4.206      0.000      9.151      0.000      0.000      0.000      0.000      0.095      0.000
          IF   1677.000      7.424      0.000      9.151      0.000      0.000      0.000      0.000      0.143      0.000
          IF   1690.000      7.913      0.000      9.151      0.000      0.000      0.000      0.000      0.062      0.000
          IF   1696.500      8.639      0.000      9.151      0.000      0.000      0.000      0.000      0.070      0.000
          IF   1707.700      9.151      0.000      9.151      0.000      0.000      0.000      0.000      0.046      0.000
          AS   1819.100      9.158      0.000      9.158      0.000      0.000      0.000      0.000     -0.011      0.000
          IF   1822.000      9.127      0.000      9.158      0.000      0.000      0.000      0.000     -0.012      0.000
          IF   1846.000      8.832      0.000      9.158      0.000      0.000      0.000      0.000     -0.010      0.000
          IF   1866.000      8.665      0.000      9.158      0.000      0.000      0.000      0.000     -0.017      0.000
          IF   1880.000      8.241      0.000      9.158      0.000      0.000      0.000      0.000      0.000      0.000
          IF   1896.500      8.668      0.000      9.158      0.000      0.000      0.000      0.000      0.000      0.000
          IF   1919.500      8.238      0.000      9.158      0.000      0.000      0.000      0.000      0.013      0.000
          IF   1933.200      9.158      0.000      9.158      0.000      0.000      0.000      0.000      0.067      0.000
          AS   2022.600      9.159      0.000      9.159      0.000      0.000      0.000      0.000     -0.110      0.000
          IF   2031.000      8.238      0.000      9.159      0.000      0.000      0.000      0.000     -0.054      0.000
          IF   2036.000      8.435      0.000      9.159      0.000      0.000      0.000      0.000     -0.166      0.000
          IF   2037.500      7.159      0.000      9.159      0.000      0.000      0.000      0.000     -0.096      0.000
          IF   2049.000      7.192      0.000      9.159      0.000      0.000      0.000      0.000     -0.030      0.000
          IF   2079.000      5.909      0.000      9.160      0.000      0.000      0.000      0.000      0.036      0.000
          IF   2096.500      8.894      0.000      9.160      0.000      0.000      0.000      0.000      0.017      0.000
          IF   2106.500      6.368      0.000      9.160      0.000      0.000      0.000      0.000     -0.114      0.000
          IF   2117.000      6.565      0.000      9.160      0.000      0.000      0.000      0.000      0.100      0.000
          IF   2126.500      8.369      0.000      9.160      0.000      0.000      0.000      0.000      0.076      0.000
          IF   2140.000      8.304      0.000      9.160      0.000      0.000      0.000      0.000     -0.090      0.000
          IF   2149.000      6.339      0.000      9.160      0.000      0.000      0.000      0.000     -0.080      0.000
          IF   2162.500      6.499      0.000      9.160      0.000      0.000      0.000      0.000      0.000      0.000
          IF   2178.500      6.335      0.000      9.160      0.000      0.000      0.000      0.000     -0.009      0.000
          IF   2189.000      6.270      0.000      9.160      0.000      0.000      0.000      0.000     -0.009      0.000
          IF   2200.000      6.139      0.000      9.160      0.000      0.000      0.000      0.000      0.029      0.000
          IF   2212.500      6.959      0.000      9.160      0.000      0.000      0.000      0.000      0.093      0.000
          IF   2222.000      8.179      0.000      9.160      0.000      0.000      0.000      0.000      0.078      0.000
          IF   2226.000      8.012      0.000      9.160      0.000      0.000      0.000      0.000     -0.043      0.000
          IF   2239.000      7.451      0.000      9.160      0.000      0.000      0.000      0.000      0.027      0.000
          IF   2254.500      8.796      0.000      9.160      0.000      0.000      0.000      0.000      0.051      0.000
          IF   2264.000      8.730      0.000      9.160      0.000      0.000      0.000      0.000     -0.028      0.000
          IF   2280.000      8.074      0.000      9.160      0.000      0.000      0.000      0.000     -0.025      0.000
          IF   2291.500      8.041      0.000      9.160      0.000      0.000      0.000      0.000      0.010      0.000
          IF   2302.000      8.304      0.000      9.160      0.000      0.000      0.000      0.000      0.057      0.000
          IF   2311.200      9.160      0.000      9.160      0.000      0.000      0.000      0.000      0.093      0.000
          AS   2367.500      9.196      0.000      9.196      0.000      0.000      0.000      0.000     -0.137      0.000
          IF   2368.000      9.127      0.000      9.196      0.000      0.000      0.000      0.000      0.000      0.000
          IF   2369.400      9.196      0.000      9.196      0.000      0.000      0.000      0.000      0.049      0.000
          AS   2520.400      9.196      0.000      9.196      0.000      0.000      0.000      0.000     -0.124      0.000
          IF   2526.000      8.504      0.000      9.196      0.000      0.000      0.000      0.000      0.000      0.000
          IF   2528.900      9.196      0.000      9.196      0.000      0.000      0.000      0.000      0.239      0.000
          AS   2596.500      9.177      0.000      9.177      0.000      0.000      0.000      0.000     -0.046      0.000
          IF   2599.000      9.062      0.000      9.177      0.000      0.000      0.000      0.000      0.000      0.000
          IF   2600.800      9.177      0.000      9.177      0.000      0.000      0.000      0.000      0.064      0.000
          AS   2627.100      9.177      0.000      9.177      0.000      0.000      0.000      0.000     -0.043      0.000
          IF   2627.500      9.160      0.000      9.177      0.000      0.000      0.000      0.000      0.000      0.000
          IF   2628.000      9.177      0.000      9.177      0.000      0.000      0.000      0.000      0.034      0.000
          AS   2641.800      9.177      0.000      9.177      0.000      0.000      0.000      0.000     -0.069      0.000
          IF   2643.000      9.094      0.000      9.177      0.000      0.000      0.000      0.000     -0.022      0.000
          IF   2647.000      9.062      0.000      9.177      0.000      0.000      0.000      0.000     -0.031      0.000
          IF   2652.500      8.796      0.000      9.177      0.000      0.000      0.000      0.000     -0.022      0.000
          IF   2659.000      8.799      0.000      9.177      0.000      0.000      0.000      0.000     -0.021      0.000
          IF   2668.000      8.471      0.000      9.177      0.000      0.000      0.000      0.000     -0.023      0.000
          IF   2677.500      8.369      0.000      9.177      0.000      0.000      0.000      0.000     -0.010      0.000
          IF   2688.000      8.271      0.000      9.177      0.000      0.000      0.000      0.000     -0.003      0.000
          IF   2697.000      8.304      0.000      9.177      0.000      0.000      0.000      0.000     -0.012      0.000
          IF   2704.500      8.074      0.000      9.177      0.000      0.000      0.000      0.000     -0.038      0.000
          IF   2717.500      7.516      0.000      9.177      0.000      0.000      0.000      0.000     -0.041      0.000
          IF   2728.000      7.123      0.000      9.177      0.000      0.000      0.000      0.000      0.037      0.000
          IF   2729.000      7.943      0.000      9.177      0.000      0.000      0.000      0.000      0.055      0.000
          IF   2737.500      7.648      0.000      9.177      0.000      0.000      0.000      0.000      0.004      0.000
          IF   2747.500      8.009      0.000      9.177      0.000      0.000      0.000      0.000      0.002      0.000
          IF   2755.000      7.680      0.000      9.177      0.000      0.000      0.000      0.000     -0.024      0.000
          IF   2766.500      7.549      0.000      9.177      0.000      0.000      0.000      0.000      0.018      0.000
          IF   2780.000      8.140      0.000      9.177      0.000      0.000      0.000      0.000      0.032      0.000
          IF   2793.000      8.402      0.000      9.177      0.000      0.000      0.000      0.000      0.008      0.000
          IF   2801.500      8.304      0.000      9.177      0.000      0.000      0.000      0.000      0.004      0.000
          IF   2809.500      8.468      0.000      9.177      0.000      0.000      0.000      0.000     -0.002      0.000
          IF   2819.500      8.271      0.000      9.177      0.000      0.000      0.000      0.000     -0.012      0.000
          IF   2829.500      8.238      0.000      9.177      0.000      0.000      0.000      0.000     -0.008      0.000
          IF   2836.500      8.140      0.000      9.177      0.000      0.000      0.000      0.000      0.023      0.000
          IF   2845.500      8.599      0.000      9.177      0.000      0.000      0.000      0.000      0.012      0.000
          IF   2861.000      8.435      0.000      9.177      0.000      0.000      0.000      0.000     -0.009      0.000
          IF   2870.000      8.369      0.000      9.177      0.000      0.000      0.000      0.000     -0.012      0.000
          IF   2875.000      8.271      0.000      9.177      0.000      0.000      0.000      0.000      0.004      0.000
          IF   2885.000      8.435      0.000      9.177      0.000      0.000      0.000      0.000     -0.010      0.000
          IF   2894.000      8.074      0.000      9.177      0.000      0.000      0.000      0.000     -0.007      0.000
          IF   2904.000      8.304      0.000      9.177      0.000      0.000      0.000      0.000      0.036      0.000
          IF   2916.000      8.861      0.000      9.177      0.000      0.000      0.000      0.000      0.043      0.000
          IF   2924.100      9.177      0.000      9.177      0.000      0.000      0.000      0.000      0.039      0.000
          AS   2935.500      9.177      0.000      9.177      0.000      0.000      0.000      0.000     -0.013      0.000
          IF   2937.000      9.157      0.000      9.177      0.000      0.000      0.000      0.000     -0.014      0.000
          IF   2944.000      9.058      0.000      9.177      0.000      0.000      0.000      0.000     -0.002      0.000
          IF   2952.000      9.124      0.000      9.177      0.000      0.000      0.000      0.000      0.013      0.000
          IF   2953.200      9.177      0.000      9.177      0.000      0.000      0.000      0.000      0.044      0.000
          AS   5037.500      9.196      0.000      9.196      0.000      0.000      0.000      0.000     -0.147      0.000
          IF   5055.500      6.549      0.000      9.196      0.000      0.000      0.000      0.000     -0.090      0.000
          IF   5069.000      6.348      0.000      9.196      0.000      0.000      0.000      0.000      0.000      0.000
          IF   5079.000      6.549      0.000      9.196      0.000      0.000      0.000      0.000      0.016      0.000
          IF   5091.500      6.713      0.000      9.196      0.000      0.000      0.000      0.000      0.013      0.000
          IF   5102.000      6.844      0.000      9.196      0.000      0.000      0.000      0.000     -0.012      0.000
          IF   5113.000      6.447      0.000      9.196      0.000      0.000      0.000      0.000     -0.010      0.000
          IF   5135.000      6.512      0.000      9.196      0.000      0.000      0.000      0.000      0.012      0.000
          IF   5159.000      7.008      0.000      9.196      0.000      0.000      0.000      0.000      0.020      0.000
          IF   5175.500      7.303      0.000      9.196      0.000      0.000      0.000      0.000      0.006      0.000
          IF   5185.500      7.169      0.000      9.196      0.000      0.000      0.000      0.000     -0.038      0.000
          IF   5193.500      6.614      0.000      9.196      0.000      0.000      0.000      0.000     -0.036      0.000
          IF   5199.000      6.676      0.000      9.196      0.000      0.000      0.000      0.000      0.003      0.000
          IF   5205.000      6.647      0.000      9.196      0.000      0.000      0.000      0.000      0.054      0.000
          IF   5218.500      7.726      0.000      9.196      0.000      0.000      0.000      0.000      0.134      0.000
          IF   5224.000      9.196      0.000      9.196      0.000      0.000      0.000      0.000      0.267      0.000
          ET      0.000      0.000      0.000      0.000      0.000      0.000      0.000      0.000      0.000      0.000
1


            END        END      FETCH SURGE ELEV SURGE ELEV    INITIAL    INITIAL                BOTTOM    AVERAGE
        STATION  ELEVATION     LENGTH    10-YEAR   100-YEAR WAVE HEIGHT  W. PERIOD                SLOPE    A-ZONES
  IE      0.000     -5.600      1.000      1.000      9.010     12.098     13.810     56.140      0.015      0.000


            END        END  NEW SURGE  NEW SURGE                                                 BOTTOM    AVERAGE
        STATION  ELEVATION    10-YEAR   100-YEAR                                                  SLOPE    A-ZONES
  OF      3.300     -5.549      0.000      9.011      0.000      0.000      0.000      0.000      0.015      0.000


            END        END  NEW SURGE  NEW SURGE                                                 BOTTOM    AVERAGE
        STATION  ELEVATION    10-YEAR   100-YEAR                                                  SLOPE    A-ZONES
  OF      6.600     -5.497      0.000      9.011      0.000      0.000      0.000      0.000      0.016      0.000


            END        END  NEW SURGE  NEW SURGE                                                 BOTTOM    AVERAGE
        STATION  ELEVATION    10-YEAR   100-YEAR                                                  SLOPE    A-ZONES
  OF      9.800     -5.446      0.000      9.012      0.000      0.000      0.000      0.000      0.016      0.000


            END        END  NEW SURGE  NEW SURGE                                                 BOTTOM    AVERAGE
        STATION  ELEVATION    10-YEAR   100-YEAR                                                  SLOPE    A-ZONES
  OF     13.100     -5.395      0.000      9.012      0.000      0.000      0.000      0.000      0.015      0.000


            END        END  NEW SURGE  NEW SURGE                                                 BOTTOM    AVERAGE
        STATION  ELEVATION    10-YEAR   100-YEAR                                                  SLOPE    A-ZONES
  OF     16.400     -5.344      0.000      9.013      0.000      0.000      0.000      0.000      0.015      0.000


            END        END  NEW SURGE  NEW SURGE                                                 BOTTOM    AVERAGE
        STATION  ELEVATION    10-YEAR   100-YEAR                                                  SLOPE    A-ZONES
  OF     19.700     -5.293      0.000      9.013      0.000      0.000      0.000      0.000      0.015      0.000


            END        END  NEW SURGE  NEW SURGE                                                 BOTTOM    AVERAGE
        STATION  ELEVATION    10-YEAR   100-YEAR                                                  SLOPE    A-ZONES
  OF     23.000     -5.241      0.000      9.014      0.000      0.000      0.000      0.000      0.016      0.000


            END        END  NEW SURGE  NEW SURGE                                                 BOTTOM    AVERAGE
        STATION  ELEVATION    10-YEAR   100-YEAR                                                  SLOPE    A-ZONES
  OF     26.200     -5.190      0.000      9.015      0.000      0.000      0.000      0.000      0.016      0.000


            END        END  NEW SURGE  NEW SURGE                                                 BOTTOM    AVERAGE
        STATION  ELEVATION    10-YEAR   100-YEAR                                                  SLOPE    A-ZONES
  OF     29.500     -5.139      0.000      9.015      0.000      0.000      0.000      0.000      0.015      0.000


            END        END  NEW SURGE  NEW SURGE                                                 BOTTOM    AVERAGE
        STATION  ELEVATION    10-YEAR   100-YEAR                                                  SLOPE    A-ZONES
  OF     32.800     -5.088      0.000      9.016      0.000      0.000      0.000      0.000      0.014      0.000


            END        END  NEW SURGE  NEW SURGE                                                 BOTTOM    AVERAGE
        STATION  ELEVATION    10-YEAR   100-YEAR                                                  SLOPE    A-ZONES
  OF     36.100     -5.044      0.000      9.017      0.000      0.000      0.000      0.000      0.011      0.000


            END        END  NEW SURGE  NEW SURGE                                                 BOTTOM    AVERAGE
        STATION  ELEVATION    10-YEAR   100-YEAR                                                  SLOPE    A-ZONES
  OF     39.400     -5.015      0.000      9.018      0.000      0.000      0.000      0.000      0.009      0.000


            END        END  NEW SURGE  NEW SURGE                                                 BOTTOM    AVERAGE
        STATION  ELEVATION    10-YEAR   100-YEAR                                                  SLOPE    A-ZONES
  OF     42.700     -4.985      0.000      9.019      0.000      0.000      0.000      0.000      0.009      0.000


            END        END  NEW SURGE  NEW SURGE                                                 BOTTOM    AVERAGE
        STATION  ELEVATION    10-YEAR   100-YEAR                                                  SLOPE    A-ZONES
  OF     45.900     -4.956      0.000      9.020      0.000      0.000      0.000      0.000      0.009      0.000


            END        END  NEW SURGE  NEW SURGE                                                 BOTTOM    AVERAGE
        STATION  ELEVATION    10-YEAR   100-YEAR                                                  SLOPE    A-ZONES
  OF     49.200     -4.926      0.000      9.021      0.000      0.000      0.000      0.000      0.009      0.000


            END        END  NEW SURGE  NEW SURGE                                                 BOTTOM    AVERAGE
        STATION  ELEVATION    10-YEAR   100-YEAR                                                  SLOPE    A-ZONES
  OF     52.500     -4.897      0.000      9.022      0.000      0.000      0.000      0.000      0.009      0.000


            END        END  NEW SURGE  NEW SURGE                                                 BOTTOM    AVERAGE
        STATION  ELEVATION    10-YEAR   100-YEAR                                                  SLOPE    A-ZONES
  OF     55.800     -4.866      0.000      9.023      0.000      0.000      0.000      0.000      0.010      0.000


            END        END  NEW SURGE  NEW SURGE                                                 BOTTOM    AVERAGE
        STATION  ELEVATION    10-YEAR   100-YEAR                                                  SLOPE    A-ZONES
  OF     59.100     -4.827      0.000      9.024      0.000      0.000      0.000      0.000      0.012      0.000


            END        END  NEW SURGE  NEW SURGE                                                 BOTTOM    AVERAGE
        STATION  ELEVATION    10-YEAR   100-YEAR                                                  SLOPE    A-ZONES
  OF     62.300     -4.788      0.000      9.026      0.000      0.000      0.000      0.000      0.012      0.000


            END        END  NEW SURGE  NEW SURGE                                                 BOTTOM    AVERAGE
        STATION  ELEVATION    10-YEAR   100-YEAR                                                  SLOPE    A-ZONES
  OF     65.600     -4.749      0.000      9.026      0.000      0.000      0.000      0.000      0.012      0.000


            END        END  NEW SURGE  NEW SURGE                                                 BOTTOM    AVERAGE
        STATION  ELEVATION    10-YEAR   100-YEAR                                                  SLOPE    A-ZONES
  OF     68.900     -4.710      0.000      9.028      0.000      0.000      0.000      0.000      0.012      0.000


            END        END  NEW SURGE  NEW SURGE                                                 BOTTOM    AVERAGE
        STATION  ELEVATION    10-YEAR   100-YEAR                                                  SLOPE    A-ZONES
  OF     72.200     -4.670      0.000      9.029      0.000      0.000      0.000      0.000      0.012      0.000


            END        END  NEW SURGE  NEW SURGE                                                 BOTTOM    AVERAGE
        STATION  ELEVATION    10-YEAR   100-YEAR                                                  SLOPE    A-ZONES
  OF     75.500     -4.631      0.000      9.030      0.000      0.000      0.000      0.000      0.012      0.000


            END        END  NEW SURGE  NEW SURGE                                                 BOTTOM    AVERAGE
        STATION  ELEVATION    10-YEAR   100-YEAR                                                  SLOPE    A-ZONES
  OF     78.700     -4.592      0.000      9.031      0.000      0.000      0.000      0.000      0.012      0.000


            END        END  NEW SURGE  NEW SURGE                                                 BOTTOM    AVERAGE
        STATION  ELEVATION    10-YEAR   100-YEAR                                                  SLOPE    A-ZONES
  OF     82.000     -4.553      0.000      9.032      0.000      0.000      0.000      0.000      0.012      0.000


            END        END  NEW SURGE  NEW SURGE                                                 BOTTOM    AVERAGE
        STATION  ELEVATION    10-YEAR   100-YEAR                                                  SLOPE    A-ZONES
  OF     85.300     -4.514      0.000      9.034      0.000      0.000      0.000      0.000      0.012      0.000


            END        END  NEW SURGE  NEW SURGE                                                 BOTTOM    AVERAGE
        STATION  ELEVATION    10-YEAR   100-YEAR                                                  SLOPE    A-ZONES
  OF     88.600     -4.475      0.000      9.035      0.000      0.000      0.000      0.000      0.012      0.000


            END        END  NEW SURGE  NEW SURGE                                                 BOTTOM    AVERAGE
        STATION  ELEVATION    10-YEAR   100-YEAR                                                  SLOPE    A-ZONES
  OF     91.900     -4.435      0.000      9.036      0.000      0.000      0.000      0.000      0.012      0.000


            END        END  NEW SURGE  NEW SURGE                                                 BOTTOM    AVERAGE
        STATION  ELEVATION    10-YEAR   100-YEAR                                                  SLOPE    A-ZONES
  OF     95.100     -4.396      0.000      9.038      0.000      0.000      0.000      0.000      0.012      0.000


            END        END  NEW SURGE  NEW SURGE                                                 BOTTOM    AVERAGE
        STATION  ELEVATION    10-YEAR   100-YEAR                                                  SLOPE    A-ZONES
  OF     98.400     -4.357      0.000      9.039      0.000      0.000      0.000      0.000      0.012      0.000


            END        END  NEW SURGE  NEW SURGE                                                 BOTTOM    AVERAGE
        STATION  ELEVATION    10-YEAR   100-YEAR                                                  SLOPE    A-ZONES
  OF    101.700     -4.318      0.000      9.040      0.000      0.000      0.000      0.000      0.012      0.000


            END        END  NEW SURGE  NEW SURGE                                                 BOTTOM    AVERAGE
        STATION  ELEVATION    10-YEAR   100-YEAR                                                  SLOPE    A-ZONES
  OF    105.000     -4.279      0.000      9.042      0.000      0.000      0.000      0.000      0.012      0.000


            END        END  NEW SURGE  NEW SURGE                                                 BOTTOM    AVERAGE
        STATION  ELEVATION    10-YEAR   100-YEAR                                                  SLOPE    A-ZONES
  OF    108.300     -4.240      0.000      9.044      0.000      0.000      0.000      0.000      0.012      0.000


            END        END  NEW SURGE  NEW SURGE                                                 BOTTOM    AVERAGE
        STATION  ELEVATION    10-YEAR   100-YEAR                                                  SLOPE    A-ZONES
  OF    111.500     -4.200      0.000      9.046      0.000      0.000      0.000      0.000      0.012      0.000


            END        END  NEW SURGE  NEW SURGE                                                 BOTTOM    AVERAGE
        STATION  ELEVATION    10-YEAR   100-YEAR                                                  SLOPE    A-ZONES
  OF    114.800     -4.161      0.000      9.047      0.000      0.000      0.000      0.000      0.010      0.000


            END        END  NEW SURGE  NEW SURGE                                                 BOTTOM    AVERAGE
        STATION  ELEVATION    10-YEAR   100-YEAR                                                  SLOPE    A-ZONES
  OF    118.100     -4.133      0.000      9.049      0.000      0.000      0.000      0.000      0.005      0.000


            END        END  NEW SURGE  NEW SURGE                                                 BOTTOM    AVERAGE
        STATION  ELEVATION    10-YEAR   100-YEAR                                                  SLOPE    A-ZONES
  OF    121.400     -4.127      0.000      9.051      0.000      0.000      0.000      0.000      0.002      0.000


            END        END  NEW SURGE  NEW SURGE                                                 BOTTOM    AVERAGE
        STATION  ELEVATION    10-YEAR   100-YEAR                                                  SLOPE    A-ZONES
  OF    124.700     -4.121      0.000      9.053      0.000      0.000      0.000      0.000      0.002      0.000


            END        END  NEW SURGE  NEW SURGE                                                 BOTTOM    AVERAGE
        STATION  ELEVATION    10-YEAR   100-YEAR                                                  SLOPE    A-ZONES
  OF    128.000     -4.115      0.000      9.055      0.000      0.000      0.000      0.000      0.002      0.000


            END        END  NEW SURGE  NEW SURGE                                                 BOTTOM    AVERAGE
        STATION  ELEVATION    10-YEAR   100-YEAR                                                  SLOPE    A-ZONES
  OF    131.200     -4.109      0.000      9.057      0.000      0.000      0.000      0.000      0.002      0.000


            END        END  NEW SURGE  NEW SURGE                                                 BOTTOM    AVERAGE
        STATION  ELEVATION    10-YEAR   100-YEAR                                                  SLOPE    A-ZONES
  OF    134.500     -4.102      0.000      9.059      0.000      0.000      0.000      0.000      0.002      0.000


            END        END  NEW SURGE  NEW SURGE                                                 BOTTOM    AVERAGE
        STATION  ELEVATION    10-YEAR   100-YEAR                                                  SLOPE    A-ZONES
  OF    137.800     -4.096      0.000      9.061      0.000      0.000      0.000      0.000      0.002      0.000


            END        END  NEW SURGE  NEW SURGE                                                 BOTTOM    AVERAGE
        STATION  ELEVATION    10-YEAR   100-YEAR                                                  SLOPE    A-ZONES
  OF    141.100     -4.090      0.000      9.063      0.000      0.000      0.000      0.000      0.002      0.000


            END        END  NEW SURGE  NEW SURGE                                                 BOTTOM    AVERAGE
        STATION  ELEVATION    10-YEAR   100-YEAR                                                  SLOPE    A-ZONES
  OF    144.400     -4.084      0.000      9.064      0.000      0.000      0.000      0.000      0.002      0.000


            END        END  NEW SURGE  NEW SURGE                                                 BOTTOM    AVERAGE
        STATION  ELEVATION    10-YEAR   100-YEAR                                                  SLOPE    A-ZONES
  OF    147.600     -4.078      0.000      9.066      0.000      0.000      0.000      0.000      0.002      0.000


            END        END  NEW SURGE  NEW SURGE                                                 BOTTOM    AVERAGE
        STATION  ELEVATION    10-YEAR   100-YEAR                                                  SLOPE    A-ZONES
  OF    150.900     -4.072      0.000      9.067      0.000      0.000      0.000      0.000      0.002      0.000


            END        END  NEW SURGE  NEW SURGE                                                 BOTTOM    AVERAGE
        STATION  ELEVATION    10-YEAR   100-YEAR                                                  SLOPE    A-ZONES
  OF    154.200     -4.066      0.000      9.069      0.000      0.000      0.000      0.000      0.002      0.000


            END        END  NEW SURGE  NEW SURGE                                                 BOTTOM    AVERAGE
        STATION  ELEVATION    10-YEAR   100-YEAR                                                  SLOPE    A-ZONES
  OF    157.500     -4.060      0.000      9.070      0.000      0.000      0.000      0.000      0.002      0.000


            END        END  NEW SURGE  NEW SURGE                                                 BOTTOM    AVERAGE
        STATION  ELEVATION    10-YEAR   100-YEAR                                                  SLOPE    A-ZONES
  OF    160.800     -4.054      0.000      9.072      0.000      0.000      0.000      0.000      0.002      0.000


            END        END  NEW SURGE  NEW SURGE                                                 BOTTOM    AVERAGE
        STATION  ELEVATION    10-YEAR   100-YEAR                                                  SLOPE    A-ZONES
  OF    164.000     -4.048      0.000      9.073      0.000      0.000      0.000      0.000      0.002      0.000


            END        END  NEW SURGE  NEW SURGE                                                 BOTTOM    AVERAGE
        STATION  ELEVATION    10-YEAR   100-YEAR                                                  SLOPE    A-ZONES
  OF    167.300     -4.042      0.000      9.075      0.000      0.000      0.000      0.000      0.002      0.000


            END        END  NEW SURGE  NEW SURGE                                                 BOTTOM    AVERAGE
        STATION  ELEVATION    10-YEAR   100-YEAR                                                  SLOPE    A-ZONES
  OF    170.600     -4.036      0.000      9.076      0.000      0.000      0.000      0.000      0.002      0.000


            END        END  NEW SURGE  NEW SURGE                                                 BOTTOM    AVERAGE
        STATION  ELEVATION    10-YEAR   100-YEAR                                                  SLOPE    A-ZONES
  OF    173.900     -4.030      0.000      9.077      0.000      0.000      0.000      0.000      0.002      0.000


            END        END  NEW SURGE  NEW SURGE                                                 BOTTOM    AVERAGE
        STATION  ELEVATION    10-YEAR   100-YEAR                                                  SLOPE    A-ZONES
  OF    177.200     -4.024      0.000      9.079      0.000      0.000      0.000      0.000      0.002      0.000


            END        END  NEW SURGE  NEW SURGE                                                 BOTTOM    AVERAGE
        STATION  ELEVATION    10-YEAR   100-YEAR                                                  SLOPE    A-ZONES
  OF    180.400     -4.018      0.000      9.080      0.000      0.000      0.000      0.000      0.002      0.000


            END        END  NEW SURGE  NEW SURGE                                                 BOTTOM    AVERAGE
        STATION  ELEVATION    10-YEAR   100-YEAR                                                  SLOPE    A-ZONES
  OF    183.700     -4.012      0.000      9.082      0.000      0.000      0.000      0.000      0.002      0.000


            END        END  NEW SURGE  NEW SURGE                                                 BOTTOM    AVERAGE
        STATION  ELEVATION    10-YEAR   100-YEAR                                                  SLOPE    A-ZONES
  OF    187.000     -4.006      0.000      9.083      0.000      0.000      0.000      0.000      0.001      0.000


            END        END  NEW SURGE  NEW SURGE                                                 BOTTOM    AVERAGE
        STATION  ELEVATION    10-YEAR   100-YEAR                                                  SLOPE    A-ZONES
  OF    190.300     -4.007      0.000      9.085      0.000      0.000      0.000      0.000      0.003      0.000


            END        END  NEW SURGE  NEW SURGE                                                 BOTTOM    AVERAGE
        STATION  ELEVATION    10-YEAR   100-YEAR                                                  SLOPE    A-ZONES
  OF    193.600     -3.987      0.000      9.086      0.000      0.000      0.000      0.000      0.016      0.000


            END        END  NEW SURGE  NEW SURGE                                                 BOTTOM    AVERAGE
        STATION  ELEVATION    10-YEAR   100-YEAR                                                  SLOPE    A-ZONES
  OF    196.800     -3.902      0.000      9.086      0.000      0.000      0.000      0.000      0.026      0.000


            END        END  NEW SURGE  NEW SURGE                                                 BOTTOM    AVERAGE
        STATION  ELEVATION    10-YEAR   100-YEAR                                                  SLOPE    A-ZONES
  OF    200.100     -3.818      0.000      9.087      0.000      0.000      0.000      0.000      0.026      0.000


            END        END  NEW SURGE  NEW SURGE                                                 BOTTOM    AVERAGE
        STATION  ELEVATION    10-YEAR   100-YEAR                                                  SLOPE    A-ZONES
  OF    203.400     -3.733      0.000      9.087      0.000      0.000      0.000      0.000      0.026      0.000


            END        END  NEW SURGE  NEW SURGE                                                 BOTTOM    AVERAGE
        STATION  ELEVATION    10-YEAR   100-YEAR                                                  SLOPE    A-ZONES
  OF    206.700     -3.649      0.000      9.088      0.000      0.000      0.000      0.000      0.026      0.000


            END        END  NEW SURGE  NEW SURGE                                                 BOTTOM    AVERAGE
        STATION  ELEVATION    10-YEAR   100-YEAR                                                  SLOPE    A-ZONES
  OF    210.000     -3.564      0.000      9.089      0.000      0.000      0.000      0.000      0.026      0.000


            END        END  NEW SURGE  NEW SURGE                                                 BOTTOM    AVERAGE
        STATION  ELEVATION    10-YEAR   100-YEAR                                                  SLOPE    A-ZONES
  OF    213.300     -3.480      0.000      9.090      0.000      0.000      0.000      0.000      0.026      0.000


            END        END  NEW SURGE  NEW SURGE                                                 BOTTOM    AVERAGE
        STATION  ELEVATION    10-YEAR   100-YEAR                                                  SLOPE    A-ZONES
  OF    216.500     -3.395      0.000      9.091      0.000      0.000      0.000      0.000      0.026      0.000


            END        END  NEW SURGE  NEW SURGE                                                 BOTTOM    AVERAGE
        STATION  ELEVATION    10-YEAR   100-YEAR                                                  SLOPE    A-ZONES
  OF    219.800     -3.311      0.000      9.092      0.000      0.000      0.000      0.000      0.026      0.000


            END        END  NEW SURGE  NEW SURGE                                                 BOTTOM    AVERAGE
        STATION  ELEVATION    10-YEAR   100-YEAR                                                  SLOPE    A-ZONES
  OF    223.100     -3.226      0.000      9.093      0.000      0.000      0.000      0.000      0.026      0.000


            END        END  NEW SURGE  NEW SURGE                                                 BOTTOM    AVERAGE
        STATION  ELEVATION    10-YEAR   100-YEAR                                                  SLOPE    A-ZONES
  OF    226.400     -3.141      0.000      9.094      0.000      0.000      0.000      0.000      0.026      0.000


            END        END  NEW SURGE  NEW SURGE                                                 BOTTOM    AVERAGE
        STATION  ELEVATION    10-YEAR   100-YEAR                                                  SLOPE    A-ZONES
  OF    229.700     -3.057      0.000      9.095      0.000      0.000      0.000      0.000      0.026      0.000


            END        END  NEW SURGE  NEW SURGE                                                 BOTTOM    AVERAGE
        STATION  ELEVATION    10-YEAR   100-YEAR                                                  SLOPE    A-ZONES
  OF    232.900     -2.972      0.000      9.096      0.000      0.000      0.000      0.000      0.026      0.000


            END        END  NEW SURGE  NEW SURGE                                                 BOTTOM    AVERAGE
        STATION  ELEVATION    10-YEAR   100-YEAR                                                  SLOPE    A-ZONES
  OF    236.200     -2.888      0.000      9.097      0.000      0.000      0.000      0.000      0.026      0.000


            END        END  NEW SURGE  NEW SURGE                                                 BOTTOM    AVERAGE
        STATION  ELEVATION    10-YEAR   100-YEAR                                                  SLOPE    A-ZONES
  OF    239.500     -2.803      0.000      9.099      0.000      0.000      0.000      0.000      0.026      0.000


            END        END  NEW SURGE  NEW SURGE                                                 BOTTOM    AVERAGE
        STATION  ELEVATION    10-YEAR   100-YEAR                                                  SLOPE    A-ZONES
  OF    242.800     -2.719      0.000      9.100      0.000      0.000      0.000      0.000      0.026      0.000


            END        END  NEW SURGE  NEW SURGE                                                 BOTTOM    AVERAGE
        STATION  ELEVATION    10-YEAR   100-YEAR                                                  SLOPE    A-ZONES
  OF    246.100     -2.634      0.000      9.101      0.000      0.000      0.000      0.000      0.026      0.000


            END        END  NEW SURGE  NEW SURGE                                                 BOTTOM    AVERAGE
        STATION  ELEVATION    10-YEAR   100-YEAR                                                  SLOPE    A-ZONES
  OF    249.300     -2.550      0.000      9.102      0.000      0.000      0.000      0.000      0.026      0.000


            END        END  NEW SURGE  NEW SURGE                                                 BOTTOM    AVERAGE
        STATION  ELEVATION    10-YEAR   100-YEAR                                                  SLOPE    A-ZONES
  OF    252.600     -2.465      0.000      9.104      0.000      0.000      0.000      0.000      0.026      0.000


            END        END  NEW SURGE  NEW SURGE                                                 BOTTOM    AVERAGE
        STATION  ELEVATION    10-YEAR   100-YEAR                                                  SLOPE    A-ZONES
  OF    255.900     -2.381      0.000      9.105      0.000      0.000      0.000      0.000      0.026      0.000


            END        END  NEW SURGE  NEW SURGE                                                 BOTTOM    AVERAGE
        STATION  ELEVATION    10-YEAR   100-YEAR                                                  SLOPE    A-ZONES
  OF    259.200     -2.296      0.000      9.107      0.000      0.000      0.000      0.000      0.026      0.000


            END        END  NEW SURGE  NEW SURGE                                                 BOTTOM    AVERAGE
        STATION  ELEVATION    10-YEAR   100-YEAR                                                  SLOPE    A-ZONES
  OF    262.500     -2.208      0.000      9.108      0.000      0.000      0.000      0.000      0.029      0.000


            END        END  NEW SURGE  NEW SURGE                                                 BOTTOM    AVERAGE
        STATION  ELEVATION    10-YEAR   100-YEAR                                                  SLOPE    A-ZONES
  OF    265.700     -2.108      0.000      9.110      0.000      0.000      0.000      0.000      0.031      0.000


            END        END  NEW SURGE  NEW SURGE                                                 BOTTOM    AVERAGE
        STATION  ELEVATION    10-YEAR   100-YEAR                                                  SLOPE    A-ZONES
  OF    269.000     -2.007      0.000      9.111      0.000      0.000      0.000      0.000      0.024      0.000


            END        END  NEW SURGE  NEW SURGE                                                 BOTTOM    AVERAGE
        STATION  ELEVATION    10-YEAR   100-YEAR                                                  SLOPE    A-ZONES
  OF    272.300     -1.947      0.000      9.113      0.000      0.000      0.000      0.000      0.017      0.000


            END        END  NEW SURGE  NEW SURGE                                                 BOTTOM    AVERAGE
        STATION  ELEVATION    10-YEAR   100-YEAR                                                  SLOPE    A-ZONES
  OF    275.600     -1.897      0.000      9.115      0.000      0.000      0.000      0.000      0.015      0.000


            END        END  NEW SURGE  NEW SURGE                                                 BOTTOM    AVERAGE
        STATION  ELEVATION    10-YEAR   100-YEAR                                                  SLOPE    A-ZONES
  OF    278.900     -1.847      0.000      9.117      0.000      0.000      0.000      0.000      0.015      0.000


            END        END  NEW SURGE  NEW SURGE                                                 BOTTOM    AVERAGE
        STATION  ELEVATION    10-YEAR   100-YEAR                                                  SLOPE    A-ZONES
  OF    282.200     -1.797      0.000      9.119      0.000      0.000      0.000      0.000      0.015      0.000


            END        END  NEW SURGE  NEW SURGE                                                 BOTTOM    AVERAGE
        STATION  ELEVATION    10-YEAR   100-YEAR                                                  SLOPE    A-ZONES
  OF    285.400     -1.747      0.000      9.122      0.000      0.000      0.000      0.000      0.015      0.000


            END        END  NEW SURGE  NEW SURGE                                                 BOTTOM    AVERAGE
        STATION  ELEVATION    10-YEAR   100-YEAR                                                  SLOPE    A-ZONES
  OF    288.700     -1.696      0.000      9.123      0.000      0.000      0.000      0.000      0.015      0.000


            END        END  NEW SURGE  NEW SURGE                                                 BOTTOM    AVERAGE
        STATION  ELEVATION    10-YEAR   100-YEAR                                                  SLOPE    A-ZONES
  OF    292.000     -1.646      0.000      9.126      0.000      0.000      0.000      0.000      0.015      0.000


            END        END  NEW SURGE  NEW SURGE                                                 BOTTOM    AVERAGE
        STATION  ELEVATION    10-YEAR   100-YEAR                                                  SLOPE    A-ZONES
  OF    295.300     -1.596      0.000      9.128      0.000      0.000      0.000      0.000      0.016      0.000


            END        END  NEW SURGE  NEW SURGE                                                 BOTTOM    AVERAGE
        STATION  ELEVATION    10-YEAR   100-YEAR                                                  SLOPE    A-ZONES
  OF    298.600     -1.543      0.000      9.130      0.000      0.000      0.000      0.000      0.017      0.000


            END        END  NEW SURGE  NEW SURGE                                                 BOTTOM    AVERAGE
        STATION  ELEVATION    10-YEAR   100-YEAR                                                  SLOPE    A-ZONES
  OF    301.800     -1.489      0.000      9.132      0.000      0.000      0.000      0.000      0.017      0.000


            END        END  NEW SURGE  NEW SURGE                                                 BOTTOM    AVERAGE
        STATION  ELEVATION    10-YEAR   100-YEAR                                                  SLOPE    A-ZONES
  OF    305.100     -1.434      0.000      9.134      0.000      0.000      0.000      0.000      0.016      0.000


            END        END  NEW SURGE  NEW SURGE                                                 BOTTOM    AVERAGE
        STATION  ELEVATION    10-YEAR   100-YEAR                                                  SLOPE    A-ZONES
  OF    308.400     -1.380      0.000      9.136      0.000      0.000      0.000      0.000      0.016      0.000


            END        END  NEW SURGE  NEW SURGE                                                 BOTTOM    AVERAGE
        STATION  ELEVATION    10-YEAR   100-YEAR                                                  SLOPE    A-ZONES
  OF    311.700     -1.326      0.000      9.138      0.000      0.000      0.000      0.000      0.016      0.000


            END        END  NEW SURGE  NEW SURGE                                                 BOTTOM    AVERAGE
        STATION  ELEVATION    10-YEAR   100-YEAR                                                  SLOPE    A-ZONES
  OF    315.000     -1.271      0.000      9.140      0.000      0.000      0.000      0.000      0.017      0.000


            END        END  NEW SURGE  NEW SURGE                                                 BOTTOM    AVERAGE
        STATION  ELEVATION    10-YEAR   100-YEAR                                                  SLOPE    A-ZONES
  OF    318.200     -1.217      0.000      9.142      0.000      0.000      0.000      0.000      0.017      0.000


[...]

                                             416.70          13.84

                                                                          V23  EL=14     130

                                             419.90          13.77

                                                                          V23  EL=14     130

                                             423.20          13.69

                                                                          V23  EL=14     130

                                             426.50          13.64

                                                                          V23  EL=14     130

                                             429.80          13.62

                                                                          V23  EL=14     130

                                             433.10          13.60

                                                                          V23  EL=14     130

                                             436.40          13.55

                                                                          V23  EL=14     130

                                             438.13          13.50

                                                                          V23  EL=13     130

                                             439.60          13.46

                                                                          V23  EL=13     130

                                             442.90          13.38

                                                                          V23  EL=13     130

                                             446.20          13.30

                                                                          V23  EL=13     130

                                             449.50          13.29

                                                                          V23  EL=13     130

                                             452.80          13.29

                                                                          V23  EL=13     130

                                             456.00          13.29

                                                                          V23  EL=13     130

                                             459.30          13.25

                                                                          V23  EL=13     130

                                             462.60          13.16

                                                                          V23  EL=13     130

                                             465.90          13.07

                                                                          V23  EL=13     130

                                             469.20          13.01

                                                                          V23  EL=13     130

                                             472.40          12.98

                                                                          V23  EL=13     130

                                             475.70          12.96

                                                                          V23  EL=13     130

                                             479.00          12.94

                                                                          V23  EL=13     130

                                             482.30          12.92

                                                                          V23  EL=13     130

                                             485.60          12.90

                                                                          V23  EL=13     130

                                             488.80          12.86

                                                                          V23  EL=13     130

                                             492.10          12.78

                                                                          V23  EL=13     130

                                             495.40          12.73

                                                                          V23  EL=13     130

                                             498.70          12.71

                                                                          V23  EL=13     130

                                             502.00          12.66

                                                                          V23  EL=13     130

                                             505.20          12.61

                                                                          V23  EL=13     130

                                             508.50          12.61

                                                                          V23  EL=13     130

                                             511.80          12.60

                                                                          V23  EL=13     130

                                             515.10          12.58

                                                                          V23  EL=13     130

                                             518.40          12.51

                                                                          V23  EL=13     130

                                             519.07          12.50

                                                                          V23  EL=12     130

                                             521.70          12.45

                                                                          V23  EL=12     130

                                             524.90          12.43

                                                                          V23  EL=12     130

                                             528.20          12.43

                                                                          V23  EL=12     130

                                             531.50          12.42

                                                                          V23  EL=12     130

                                             534.80          12.40

                                                                          V23  EL=12     130

                                             538.10          12.38

                                                                          V23  EL=12     130

                                             541.30          12.32

                                                                          V23  EL=12     130

                                             544.60          12.27

                                                                          V23  EL=12     130

                                             547.90          12.21

                                                                          V23  EL=12     130

                                             551.20          12.16

                                                                          V23  EL=12     130

                                             554.50          12.19

                                                                          V23  EL=12     130

                                             557.70          12.04

                                                                          V23  EL=12     130

                                             561.00          12.05

                                                                          V23  EL=12     130

                                             564.30          11.97

                                                                          V23  EL=12     130

                                             567.60          11.93

                                                                          V23  EL=12     130

                                             570.90          11.77

                                                                          V23  EL=12     130

                                             573.98          11.50

                                                                          V23  EL=11     130

                                             574.10          11.49

                                                                          V23  EL=11     130

                                             574.58          11.47

                                                                          A17  EL=11      85

                                             577.40          11.36

                                                                          A17  EL=11      85

                                             580.70          11.25

                                                                          A17  EL=11      85

                                             584.00          11.16

                                                                          A17  EL=11      85

                                             587.30          11.07

                                                                          A17  EL=11      85

                                             590.50          11.04

                                                                          A17  EL=11      85

                                             593.80          11.07

                                                                          A17  EL=11      85

                                             597.10          10.89

                                                                          A17  EL=11      85

                                             600.40          10.91

                                                                          A17  EL=11      85

                                             603.70          10.88

                                                                          A17  EL=11      85

                                             607.00          10.84

                                                                          A17  EL=11      85

                                             610.20          10.81

                                                                          A17  EL=11      85

                                             613.50          10.85

                                                                          A17  EL=11      85

                                             616.80          10.88

                                                                          A17  EL=11      85

                                             620.10          10.88

                                                                          A17  EL=11      85

                                             623.40          10.89

                                                                          A17  EL=11      85

                                             626.60          10.87

                                                                          A17  EL=11      85

                                             629.90          10.77

                                                                          A17  EL=11      85

                                             633.20          10.69

                                                                          A17  EL=11      85

                                             636.50          10.67

                                                                          A17  EL=11      85

                                             639.80          10.65

                                                                          A17  EL=11      85

                                             643.00          10.61

                                                                          A17  EL=11      85

                                             646.30          10.57

                                                                          A17  EL=11      85

                                             649.60          10.50

                                                                          A17  EL=11      85

                                             649.69          10.50

                                                                          A17  EL=10      85

                                             652.90          10.39

                                                                          A17  EL=10      85

                                             656.20          10.30

                                                                          A17  EL=10      85

                                             659.40          10.21

                                                                          A17  EL=10      85

                                             662.70          10.01

                                                                          A17  EL=10      85

                                             664.10           9.82


                                            1068.20           9.20

                                                                          A17  EL= 9      85

                                            1073.90           9.20


                                            1088.10           9.20

                                                                          A17  EL= 9      85

                                            1093.00           9.20


                                            1149.90           9.15

                                                                          A17  EL= 9      85

                                            1240.50           9.35

                                                                          A17  EL= 9      85

                                            1257.50           9.38

                                                                          A17  EL= 9      85

                                            1336.50           9.47

                                                                          A17  EL= 9      85

                                            1353.50           9.49

                                                                          A17  EL= 9      85

                                            1360.08           9.50

                                                                          A17  EL=10      85

                                            1415.50           9.55

                                                                          A17  EL=10      85

                                            1416.67           9.50

                                                                          A17  EL= 9      85

                                            1424.00           9.16

                                                                          A17  EL= 9      85

                                            1559.96           9.50

                                                                          A17  EL=10      85

                                            1571.00           9.52

                                                                          A17  EL=10      85

                                            1577.00           9.54

                                                                          A17  EL=10      85

                                            1604.00           9.59

                                                                          A17  EL=10      85

                                            1610.50           9.60

                                                                          A17  EL=10      85

                                            1693.76           9.50

                                                                          A17  EL= 9      85

                                            1707.70           9.16


                                            1819.10           9.16

                                                                          A17  EL= 9      85

                                            1933.20           9.16


                                            2022.60           9.16

                                                                          A17  EL= 9      85

                                            2049.00           9.25

                                                                          A17  EL= 9      85

                                            2079.00           9.31

                                                                          A17  EL= 9      85

                                            2231.90           9.50

                                                                          A17  EL=10      85

                                            2240.46           9.50

                                                                          A17  EL= 9      85

                                            2311.20           9.17


                                            2367.50           9.20

                                                                          A17  EL= 9      85

                                            2369.40           9.20


                                            2520.40           9.20

                                                                          A17  EL= 9      85

                                            2528.90           9.20


                                            2596.50           9.18

                                                                          A17  EL= 9      85

                                            2600.80           9.18


                                            2627.10           9.18

                                                                          A17  EL= 9      85

                                            2628.00           9.18


                                            2641.80           9.18

                                                                          A17  EL= 9      85

                                            2892.58           9.50

                                                                          A17  EL=10      85

                                            2904.10           9.50

                                                                          A17  EL= 9      85

                                            2924.10           9.18


                                            2935.50           9.18

                                                                          A17  EL= 9      85

                                            2953.20           9.18


                                            5037.50           9.20

                                                                          A17  EL= 9      85

                                            5203.28           9.50

                                                                          A17  EL=10      85

                                            5218.73           9.50

                                                                          A17  EL= 9      85

                                            5224.00           9.20



                                                  ZONE TERMINATED AT END OF TRANSECT



                                                  PART 7   POSTSCRIPT NOTES


                         PS#  1   START(386190.0292,4806153.2539)                                              
                         PS#  2   END(385540.2958,4808129.6323)                                                
