 WAVE HEIGHT COMPUTATIONS FOR FLOOD INSURANCE STUDIES (WHAFIS VERSION 4.0G, 08_2007)
 Executed on: Thu Apr  2 11:05:19 2020
 Input file:  C:\FEMA-TransectAnalysis\LOMR-TransectAnalysis-Kennebunkport\3_whafis\whafis4\YK-92.dat                                         
 Output file: C:\FEMA-TransectAnalysis\LOMR-TransectAnalysis-Kennebunkport\3_whafis\whafis4\YK-92.out                                         



                                                              header                                                                
                                                     THIS IS A 100-YEAR CASE


                                       THE FOLLOWING NON-DEFAULT WIND SPEEDS ARE BEING USED
                                            WINDIF  56.14  WINDOF  56.14  WINDVH  60.00

                                                             PART1 INPUT

          IE      0.000    -28.592      1.000      1.000      8.831     30.287     14.349     56.140      0.000      0.000
          OF      2.000    -28.592      0.000      8.831      0.000      0.000      0.000      0.000      0.000      0.000
          OF      3.300    -28.592      0.000      8.832      0.000      0.000      0.000      0.000      0.000      0.000
          OF      6.600    -28.592      0.000      8.833      0.000      0.000      0.000      0.000      0.000      0.000
          OF      9.800    -28.592      0.000      8.834      0.000      0.000      0.000      0.000      0.000      0.000
          OF     13.100    -28.592      0.000      8.835      0.000      0.000      0.000      0.000      0.000      0.000
          OF     16.400    -28.592      0.000      8.836      0.000      0.000      0.000      0.000      0.000      0.000
          OF     19.700    -28.592      0.000      8.837      0.000      0.000      0.000      0.000      0.000      0.000
          OF     23.000    -28.592      0.000      8.838      0.000      0.000      0.000      0.000      0.000      0.000
          OF     26.200    -28.593      0.000      8.840      0.000      0.000      0.000      0.000      0.000      0.000
          OF     29.500    -28.593      0.000      8.841      0.000      0.000      0.000      0.000      0.001      0.000
          OF     32.800    -28.587      0.000      8.842      0.000      0.000      0.000      0.000      0.007      0.000
          OF     36.100    -28.550      0.000      8.843      0.000      0.000      0.000      0.000      0.011      0.000
          OF     39.400    -28.512      0.000      8.844      0.000      0.000      0.000      0.000      0.012      0.000
          OF     42.700    -28.474      0.000      8.845      0.000      0.000      0.000      0.000      0.012      0.000
          OF     45.900    -28.436      0.000      8.846      0.000      0.000      0.000      0.000      0.012      0.000
          OF     49.200    -28.399      0.000      8.847      0.000      0.000      0.000      0.000      0.011      0.000
          OF     52.500    -28.361      0.000      8.848      0.000      0.000      0.000      0.000      0.012      0.000
          OF     55.800    -28.323      0.000      8.849      0.000      0.000      0.000      0.000      0.012      0.000
          OF     59.100    -28.285      0.000      8.850      0.000      0.000      0.000      0.000      0.012      0.000
          OF     62.300    -28.248      0.000      8.851      0.000      0.000      0.000      0.000      0.012      0.000
          OF     65.600    -28.210      0.000      8.852      0.000      0.000      0.000      0.000      0.012      0.000
          OF     68.900    -28.172      0.000      8.853      0.000      0.000      0.000      0.000      0.012      0.000
          OF     72.200    -28.134      0.000      8.854      0.000      0.000      0.000      0.000      0.012      0.000
          OF     75.500    -28.096      0.000      8.855      0.000      0.000      0.000      0.000      0.012      0.000
          OF     78.700    -28.059      0.000      8.856      0.000      0.000      0.000      0.000      0.012      0.000
          OF     82.000    -28.018      0.000      8.857      0.000      0.000      0.000      0.000      0.013      0.000
          OF     85.300    -27.972      0.000      8.858      0.000      0.000      0.000      0.000      0.014      0.000
          OF     88.600    -27.925      0.000      8.859      0.000      0.000      0.000      0.000      0.014      0.000
          OF     91.900    -27.879      0.000      8.861      0.000      0.000      0.000      0.000      0.014      0.000
          OF     95.100    -27.833      0.000      8.862      0.000      0.000      0.000      0.000      0.014      0.000
          OF     98.400    -27.787      0.000      8.863      0.000      0.000      0.000      0.000      0.014      0.000
          OF    101.700    -27.740      0.000      8.864      0.000      0.000      0.000      0.000      0.014      0.000
          OF    105.000    -27.694      0.000      8.865      0.000      0.000      0.000      0.000      0.014      0.000
          OF    108.300    -27.648      0.000      8.866      0.000      0.000      0.000      0.000      0.014      0.000
          OF    111.500    -27.602      0.000      8.867      0.000      0.000      0.000      0.000      0.014      0.000
          OF    114.800    -27.555      0.000      8.868      0.000      0.000      0.000      0.000      0.014      0.000
          OF    118.100    -27.509      0.000      8.870      0.000      0.000      0.000      0.000      0.014      0.000
          OF    121.400    -27.463      0.000      8.871      0.000      0.000      0.000      0.000      0.014      0.000
          OF    124.700    -27.416      0.000      8.872      0.000      0.000      0.000      0.000      0.014      0.000
          OF    128.000    -27.370      0.000      8.873      0.000      0.000      0.000      0.000      0.014      0.000
          OF    131.200    -27.324      0.000      8.875      0.000      0.000      0.000      0.000      0.014      0.000
          OF    134.500    -27.278      0.000      8.876      0.000      0.000      0.000      0.000      0.014      0.000
          OF    137.800    -27.231      0.000      8.877      0.000      0.000      0.000      0.000      0.014      0.000
          OF    141.100    -27.185      0.000      8.878      0.000      0.000      0.000      0.000      0.014      0.000
          OF    144.400    -27.139      0.000      8.879      0.000      0.000      0.000      0.000      0.014      0.000
          OF    147.600    -27.092      0.000      8.881      0.000      0.000      0.000      0.000      0.014      0.000
          OF    150.900    -27.046      0.000      8.882      0.000      0.000      0.000      0.000      0.014      0.000
          OF    154.200    -27.000      0.000      8.883      0.000      0.000      0.000      0.000      0.014      0.000
          OF    157.500    -26.954      0.000      8.884      0.000      0.000      0.000      0.000      0.014      0.000
          OF    160.800    -26.907      0.000      8.885      0.000      0.000      0.000      0.000      0.014      0.000
          OF    164.000    -26.861      0.000      8.887      0.000      0.000      0.000      0.000      0.014      0.000
          OF    167.300    -26.815      0.000      8.888      0.000      0.000      0.000      0.000      0.014      0.000
          OF    170.600    -26.768      0.000      8.889      0.000      0.000      0.000      0.000      0.014      0.000
          OF    173.900    -26.722      0.000      8.891      0.000      0.000      0.000      0.000      0.013      0.000
          OF    177.200    -26.682      0.000      8.892      0.000      0.000      0.000      0.000      0.012      0.000
          OF    180.400    -26.647      0.000      8.893      0.000      0.000      0.000      0.000      0.011      0.000
          OF    183.700    -26.613      0.000      8.894      0.000      0.000      0.000      0.000      0.010      0.000
          OF    187.000    -26.578      0.000      8.896      0.000      0.000      0.000      0.000      0.010      0.000
          OF    190.300    -26.544      0.000      8.897      0.000      0.000      0.000      0.000      0.010      0.000
          OF    193.600    -26.509      0.000      8.899      0.000      0.000      0.000      0.000      0.011      0.000
          OF    196.800    -26.474      0.000      8.900      0.000      0.000      0.000      0.000      0.011      0.000
          OF    200.100    -26.440      0.000      8.901      0.000      0.000      0.000      0.000      0.010      0.000
          OF    203.400    -26.405      0.000      8.903      0.000      0.000      0.000      0.000      0.010      0.000
          OF    206.700    -26.371      0.000      8.904      0.000      0.000      0.000      0.000      0.010      0.000
          OF    210.000    -26.336      0.000      8.905      0.000      0.000      0.000      0.000      0.011      0.000
          OF    213.300    -26.301      0.000      8.907      0.000      0.000      0.000      0.000      0.011      0.000
          OF    216.500    -26.267      0.000      8.908      0.000      0.000      0.000      0.000      0.011      0.000
          OF    219.800    -26.232      0.000      8.909      0.000      0.000      0.000      0.000      0.010      0.000
          OF    223.100    -26.198      0.000      8.911      0.000      0.000      0.000      0.000      0.010      0.000
          OF    226.400    -26.163      0.000      8.912      0.000      0.000      0.000      0.000      0.011      0.000
          OF    229.700    -26.128      0.000      8.913      0.000      0.000      0.000      0.000      0.011      0.000
          OF    232.900    -26.094      0.000      8.915      0.000      0.000      0.000      0.000      0.011      0.000
          OF    236.200    -26.059      0.000      8.916      0.000      0.000      0.000      0.000      0.010      0.000
          OF    239.500    -26.025      0.000      8.917      0.000      0.000      0.000      0.000      0.010      0.000
          OF    242.800    -25.990      0.000      8.919      0.000      0.000      0.000      0.000      0.011      0.000
          OF    246.100    -25.955      0.000      8.920      0.000      0.000      0.000      0.000      0.011      0.000
          OF    249.300    -25.921      0.000      8.921      0.000      0.000      0.000      0.000      0.011      0.000
          OF    252.600    -25.886      0.000      8.923      0.000      0.000      0.000      0.000      0.011      0.000
          OF    255.900    -25.851      0.000      8.924      0.000      0.000      0.000      0.000      0.010      0.000
          OF    259.200    -25.817      0.000      8.925      0.000      0.000      0.000      0.000      0.010      0.000
          OF    262.500    -25.782      0.000      8.927      0.000      0.000      0.000      0.000      0.011      0.000
          OF    265.700    -25.748      0.000      8.928      0.000      0.000      0.000      0.000      0.011      0.000
          OF    269.000    -25.713      0.000      8.930      0.000      0.000      0.000      0.000      0.011      0.000
          OF    272.300    -25.678      0.000      8.931      0.000      0.000      0.000      0.000      0.010      0.000
          OF    275.600    -25.644      0.000      8.932      0.000      0.000      0.000      0.000      0.010      0.000
          OF    278.900    -25.609      0.000      8.934      0.000      0.000      0.000      0.000      0.010      0.000
          OF    282.200    -25.575      0.000      8.935      0.000      0.000      0.000      0.000      0.011      0.000
          OF    285.400    -25.540      0.000      8.936      0.000      0.000      0.000      0.000      0.011      0.000
          OF    288.700    -25.505      0.000      8.938      0.000      0.000      0.000      0.000      0.010      0.000
          OF    292.000    -25.471      0.000      8.939      0.000      0.000      0.000      0.000      0.010      0.000
          OF    295.300    -25.436      0.000      8.940      0.000      0.000      0.000      0.000      0.010      0.000
          OF    298.600    -25.402      0.000      8.942      0.000      0.000      0.000      0.000      0.011      0.000
          OF    301.800    -25.367      0.000      8.943      0.000      0.000      0.000      0.000      0.011      0.000
          OF    305.100    -25.332      0.000      8.944      0.000      0.000      0.000      0.000      0.010      0.000
          OF    308.400    -25.298      0.000      8.946      0.000      0.000      0.000      0.000      0.011      0.000
          OF    311.700    -25.262      0.000      8.947      0.000      0.000      0.000      0.000      0.011      0.000
          OF    315.000    -25.227      0.000      8.948      0.000      0.000      0.000      0.000      0.011      0.000
          OF    318.200    -25.191      0.000      8.950      0.000      0.000      0.000      0.000      0.011      0.000
          OF    321.500    -25.156      0.000      8.951      0.000      0.000      0.000      0.000      0.011      0.000
          OF    324.800    -25.120      0.000      8.953      0.000      0.000      0.000      0.000      0.011      0.000
          OF    328.100    -25.085      0.000      8.954      0.000      0.000      0.000      0.000      0.011      0.000
          OF    331.400    -25.049      0.000      8.955      0.000      0.000      0.000      0.000      0.011      0.000
          OF    334.600    -25.014      0.000      8.957      0.000      0.000      0.000      0.000      0.011      0.000
          OF    337.900    -24.978      0.000      8.958      0.000      0.000      0.000      0.000      0.011      0.000
          OF    341.200    -24.943      0.000      8.959      0.000      0.000      0.000      0.000      0.010      0.000
          OF    344.500    -24.913      0.000      8.961      0.000      0.000      0.000      0.000      0.009      0.000
          OF    347.800    -24.882      0.000      8.962      0.000      0.000      0.000      0.000      0.009      0.000
          OF    351.000    -24.851      0.000      8.963      0.000      0.000      0.000      0.000      0.009      0.000
          OF    354.300    -24.821      0.000      8.965      0.000      0.000      0.000      0.000      0.009      0.000
          OF    357.600    -24.790      0.000      8.966      0.000      0.000      0.000      0.000      0.009      0.000
          OF    360.900    -24.760      0.000      8.967      0.000      0.000      0.000      0.000      0.009      0.000
          OF    364.200    -24.729      0.000      8.969      0.000      0.000      0.000      0.000      0.009      0.000
          OF    367.500    -24.698      0.000      8.970      0.000      0.000      0.000      0.000      0.009      0.000
          OF    370.700    -24.668      0.000      8.971      0.000      0.000      0.000      0.000      0.009      0.000
          OF    374.000    -24.637      0.000      8.973      0.000      0.000      0.000      0.000      0.009      0.000
          OF    377.300    -24.606      0.000      8.974      0.000      0.000      0.000      0.000      0.009      0.000
          OF    380.600    -24.575      0.000      8.975      0.000      0.000      0.000      0.000      0.009      0.000
          OF    383.900    -24.544      0.000      8.977      0.000      0.000      0.000      0.000      0.009      0.000
          OF    387.100    -24.513      0.000      8.978      0.000      0.000      0.000      0.000      0.009      0.000
          OF    390.400    -24.482      0.000      8.979      0.000      0.000      0.000      0.000      0.009      0.000
          OF    393.700    -24.451      0.000      8.981      0.000      0.000      0.000      0.000      0.009      0.000
          OF    397.000    -24.420      0.000      8.982      0.000      0.000      0.000      0.000      0.009      0.000
          OF    400.300    -24.389      0.000      8.983      0.000      0.000      0.000      0.000      0.010      0.000
          OF    403.500    -24.357      0.000      8.985      0.000      0.000      0.000      0.000      0.010      0.000
          OF    406.800    -24.326      0.000      8.986      0.000      0.000      0.000      0.000      0.009      0.000
          OF    410.100    -24.295      0.000      8.987      0.000      0.000      0.000      0.000      0.009      0.000
          OF    413.400    -24.264      0.000      8.988      0.000      0.000      0.000      0.000      0.009      0.000
          OF    416.700    -24.233      0.000      8.990      0.000      0.000      0.000      0.000      0.009      0.000
          OF    419.900    -24.202      0.000      8.991      0.000      0.000      0.000      0.000      0.009      0.000
          OF    423.200    -24.171      0.000      8.992      0.000      0.000      0.000      0.000      0.009      0.000
          OF    426.500    -24.139      0.000      8.993      0.000      0.000      0.000      0.000      0.009      0.000
          OF    429.800    -24.108      0.000      8.995      0.000      0.000      0.000      0.000      0.009      0.000
          OF    433.100    -24.077      0.000      8.996      0.000      0.000      0.000      0.000      0.009      0.000
          OF    436.400    -24.046      0.000      8.997      0.000      0.000      0.000      0.000      0.009      0.000
          OF    439.600    -24.015      0.000      8.998      0.000      0.000      0.000      0.000      0.009      0.000
          OF    442.900    -23.984      0.000      9.000      0.000      0.000      0.000      0.000      0.009      0.000
          OF    446.200    -23.953      0.000      9.001      0.000      0.000      0.000      0.000      0.009      0.000
          OF    449.500    -23.922      0.000      9.002      0.000      0.000      0.000      0.000      0.009      0.000
          OF    452.800    -23.890      0.000      9.003      0.000      0.000      0.000      0.000      0.010      0.000
          OF    456.000    -23.859      0.000      9.005      0.000      0.000      0.000      0.000      0.009      0.000
          OF    459.300    -23.828      0.000      9.006      0.000      0.000      0.000      0.000      0.009      0.000
          OF    462.600    -23.797      0.000      9.007      0.000      0.000      0.000      0.000      0.009      0.000
          OF    465.900    -23.766      0.000      9.009      0.000      0.000      0.000      0.000      0.009      0.000
          OF    469.200    -23.735      0.000      9.010      0.000      0.000      0.000      0.000      0.009      0.000
          OF    472.400    -23.704      0.000      9.011      0.000      0.000      0.000      0.000      0.010      0.000
          OF    475.700    -23.672      0.000      9.012      0.000      0.000      0.000      0.000      0.009      0.000
          OF    479.000    -23.641      0.000      9.014      0.000      0.000      0.000      0.000      0.009      0.000
          OF    482.300    -23.610      0.000      9.015      0.000      0.000      0.000      0.000      0.009      0.000
          OF    485.600    -23.579      0.000      9.016      0.000      0.000      0.000      0.000      0.009      0.000
          OF    488.800    -23.548      0.000      9.017      0.000      0.000      0.000      0.000      0.009      0.000
          OF    492.100    -23.517      0.000      9.019      0.000      0.000      0.000      0.000      0.009      0.000
          OF    495.400    -23.486      0.000      9.020      0.000      0.000      0.000      0.000      0.009      0.000
          OF    498.700    -23.454      0.000      9.021      0.000      0.000      0.000      0.000      0.009      0.000
          OF    502.000    -23.423      0.000      9.022      0.000      0.000      0.000      0.000      0.009      0.000
          OF    505.200    -23.392      0.000      9.023      0.000      0.000      0.000      0.000      0.010      0.000
          OF    508.500    -23.360      0.000      9.024      0.000      0.000      0.000      0.000      0.009      0.000
          OF    511.800    -23.329      0.000      9.026      0.000      0.000      0.000      0.000      0.009      0.000
          OF    515.100    -23.297      0.000      9.027      0.000      0.000      0.000      0.000      0.009      0.000
          OF    518.400    -23.266      0.000      9.028      0.000      0.000      0.000      0.000      0.009      0.000
          OF    521.700    -23.235      0.000      9.029      0.000      0.000      0.000      0.000      0.010      0.000
          OF    524.900    -23.203      0.000      9.030      0.000      0.000      0.000      0.000      0.010      0.000
          OF    528.200    -23.172      0.000      9.032      0.000      0.000      0.000      0.000      0.009      0.000
          OF    531.500    -23.140      0.000      9.033      0.000      0.000      0.000      0.000      0.009      0.000
          OF    534.800    -23.109      0.000      9.034      0.000      0.000      0.000      0.000      0.009      0.000
          OF    538.100    -23.078      0.000      9.035      0.000      0.000      0.000      0.000      0.010      0.000
          OF    541.300    -23.046      0.000      9.037      0.000      0.000      0.000      0.000      0.010      0.000
          OF    544.600    -23.015      0.000      9.038      0.000      0.000      0.000      0.000      0.009      0.000
          OF    547.900    -22.983      0.000      9.039      0.000      0.000      0.000      0.000      0.009      0.000
          OF    551.200    -22.952      0.000      9.040      0.000      0.000      0.000      0.000      0.009      0.000
          OF    554.500    -22.920      0.000      9.041      0.000      0.000      0.000      0.000      0.010      0.000
          OF    557.700    -22.889      0.000      9.042      0.000      0.000      0.000      0.000      0.009      0.000
          OF    561.000    -22.858      0.000      9.044      0.000      0.000      0.000      0.000      0.009      0.000
          OF    564.300    -22.826      0.000      9.045      0.000      0.000      0.000      0.000      0.009      0.000
          OF    567.600    -22.795      0.000      9.046      0.000      0.000      0.000      0.000      0.009      0.000
          OF    570.900    -22.763      0.000      9.047      0.000      0.000      0.000      0.000      0.010      0.000
          OF    574.100    -22.732      0.000      9.048      0.000      0.000      0.000      0.000      0.010      0.000
          OF    577.400    -22.700      0.000      9.050      0.000      0.000      0.000      0.000      0.009      0.000
          OF    580.700    -22.669      0.000      9.051      0.000      0.000      0.000      0.000      0.009      0.000
          OF    584.000    -22.638      0.000      9.052      0.000      0.000      0.000      0.000      0.009      0.000
          OF    587.300    -22.606      0.000      9.053      0.000      0.000      0.000      0.000      0.010      0.000
          OF    590.500    -22.575      0.000      9.054      0.000      0.000      0.000      0.000      0.010      0.000
          OF    593.800    -22.543      0.000      9.055      0.000      0.000      0.000      0.000      0.010      0.000
          OF    597.100    -22.511      0.000      9.056      0.000      0.000      0.000      0.000      0.010      0.000
          OF    600.400    -22.479      0.000      9.057      0.000      0.000      0.000      0.000      0.010      0.000
          OF    603.700    -22.447      0.000      9.059      0.000      0.000      0.000      0.000      0.010      0.000
          OF    607.000    -22.414      0.000      9.060      0.000      0.000      0.000      0.000      0.010      0.000
          OF    610.200    -22.382      0.000      9.061      0.000      0.000      0.000      0.000      0.010      0.000
          OF    613.500    -22.350      0.000      9.062      0.000      0.000      0.000      0.000      0.010      0.000
          OF    616.800    -22.317      0.000      9.063      0.000      0.000      0.000      0.000      0.010      0.000
          OF    620.100    -22.285      0.000      9.064      0.000      0.000      0.000      0.000      0.010      0.000
          OF    623.400    -22.253      0.000      9.065      0.000      0.000      0.000      0.000      0.010      0.000
          OF    626.600    -22.221      0.000      9.066      0.000      0.000      0.000      0.000      0.010      0.000
          OF    629.900    -22.189      0.000      9.068      0.000      0.000      0.000      0.000      0.010      0.000
          OF    633.200    -22.156      0.000      9.069      0.000      0.000      0.000      0.000      0.010      0.000
          OF    636.500    -22.124      0.000      9.070      0.000      0.000      0.000      0.000      0.011      0.000
          OF    639.800    -22.086      0.000      9.071      0.000      0.000      0.000      0.000      0.012      0.000
          OF    643.000    -22.044      0.000      9.072      0.000      0.000      0.000      0.000      0.013      0.000
          OF    646.300    -22.001      0.000      9.073      0.000      0.000      0.000      0.000      0.013      0.000
          OF    649.600    -21.959      0.000      9.074      0.000      0.000      0.000      0.000      0.013      0.000
          OF    652.900    -21.916      0.000      9.075      0.000      0.000      0.000      0.000      0.013      0.000
          OF    656.200    -21.873      0.000      9.076      0.000      0.000      0.000      0.000      0.013      0.000
          OF    659.400    -21.831      0.000      9.077      0.000      0.000      0.000      0.000      0.013      0.000
          OF    662.700    -21.788      0.000      9.078      0.000      0.000      0.000      0.000      0.013      0.000
          OF    666.000    -21.746      0.000      9.079      0.000      0.000      0.000      0.000      0.013      0.000
          OF    669.300    -21.703      0.000      9.080      0.000      0.000      0.000      0.000      0.013      0.000
          OF    672.600    -21.660      0.000      9.081      0.000      0.000      0.000      0.000      0.013      0.000
          OF    675.900    -21.618      0.000      9.082      0.000      0.000      0.000      0.000      0.013      0.000
          OF    679.100    -21.575      0.000      9.083      0.000      0.000      0.000      0.000      0.013      0.000
          OF    682.400    -21.533      0.000      9.084      0.000      0.000      0.000      0.000      0.013      0.000
          OF    685.700    -21.490      0.000      9.085      0.000      0.000      0.000      0.000      0.013      0.000
          OF    689.000    -21.448      0.000      9.086      0.000      0.000      0.000      0.000      0.013      0.000
          OF    692.300    -21.405      0.000      9.087      0.000      0.000      0.000      0.000      0.013      0.000
          OF    695.500    -21.362      0.000      9.088      0.000      0.000      0.000      0.000      0.013      0.000
          OF    698.800    -21.320      0.000      9.089      0.000      0.000      0.000      0.000      0.012      0.000
          OF    702.100    -21.280      0.000      9.090      0.000      0.000      0.000      0.000      0.012      0.000
          OF    705.400    -21.242      0.000      9.092      0.000      0.000      0.000      0.000      0.011      0.000
          OF    708.700    -21.205      0.000      9.092      0.000      0.000      0.000      0.000      0.012      0.000
          OF    711.900    -21.167      0.000      9.094      0.000      0.000      0.000      0.000      0.012      0.000
          OF    715.200    -21.130      0.000      9.095      0.000      0.000      0.000      0.000      0.011      0.000
          OF    718.500    -21.092      0.000      9.096      0.000      0.000      0.000      0.000      0.011      0.000
          OF    721.800    -21.055      0.000      9.097      0.000      0.000      0.000      0.000      0.011      0.000
          OF    725.100    -21.017      0.000      9.098      0.000      0.000      0.000      0.000      0.012      0.000
          OF    728.300    -20.980      0.000      9.099      0.000      0.000      0.000      0.000      0.012      0.000
          OF    731.600    -20.942      0.000      9.100      0.000      0.000      0.000      0.000      0.011      0.000
          OF    734.900    -20.905      0.000      9.101      0.000      0.000      0.000      0.000      0.011      0.000
          OF    738.200    -20.867      0.000      9.102      0.000      0.000      0.000      0.000      0.011      0.000
          OF    741.500    -20.830      0.000      9.103      0.000      0.000      0.000      0.000      0.012      0.000
          OF    744.700    -20.792      0.000      9.104      0.000      0.000      0.000      0.000      0.012      0.000
          OF    748.000    -20.755      0.000      9.106      0.000      0.000      0.000      0.000      0.011      0.000
          OF    751.300    -20.717      0.000      9.107      0.000      0.000      0.000      0.000      0.011      0.000
          OF    754.600    -20.680      0.000      9.108      0.000      0.000      0.000      0.000      0.011      0.000
          OF    757.900    -20.642      0.000      9.109      0.000      0.000      0.000      0.000      0.011      0.000
          OF    761.200    -20.605      0.000      9.110      0.000      0.000      0.000      0.000      0.012      0.000
          OF    764.400    -20.567      0.000      9.111      0.000      0.000      0.000      0.000      0.012      0.000
          OF    767.700    -20.530      0.000      9.112      0.000      0.000      0.000      0.000      0.011      0.000
          OF    771.000    -20.493      0.000      9.113      0.000      0.000      0.000      0.000      0.010      0.000
          OF    774.300    -20.462      0.000      9.114      0.000      0.000      0.000      0.000      0.009      0.000
          OF    777.600    -20.432      0.000      9.115      0.000      0.000      0.000      0.000      0.009      0.000
          OF    780.800    -20.401      0.000      9.116      0.000      0.000      0.000      0.000      0.009      0.000
          OF    784.100    -20.371      0.000      9.118      0.000      0.000      0.000      0.000      0.009      0.000
          OF    787.400    -20.340      0.000      9.119      0.000      0.000      0.000      0.000      0.009      0.000
          OF    790.700    -20.310      0.000      9.120      0.000      0.000      0.000      0.000      0.009      0.000
          OF    794.000    -20.279      0.000      9.121      0.000      0.000      0.000      0.000      0.009      0.000
          OF    797.200    -20.249      0.000      9.122      0.000      0.000      0.000      0.000      0.009      0.000
          OF    800.500    -20.218      0.000      9.123      0.000      0.000      0.000      0.000      0.009      0.000
          OF    803.800    -20.187      0.000      9.124      0.000      0.000      0.000      0.000      0.009      0.000
          OF    807.100    -20.157      0.000      9.125      0.000      0.000      0.000      0.000      0.009      0.000
          OF    810.400    -20.126      0.000      9.127      0.000      0.000      0.000      0.000      0.009      0.000
          OF    813.600    -20.096      0.000      9.127      0.000      0.000      0.000      0.000      0.009      0.000
          OF    816.900    -20.065      0.000      9.129      0.000      0.000      0.000      0.000      0.009      0.000
          OF    820.200    -20.033      0.000      9.130      0.000      0.000      0.000      0.000      0.010      0.000
          OF    823.500    -19.999      0.000      9.131      0.000      0.000      0.000      0.000      0.010      0.000
          OF    826.800    -19.965      0.000      9.132      0.000      0.000      0.000      0.000      0.010      0.000
          OF    830.100    -19.931      0.000      9.133      0.000      0.000      0.000      0.000      0.010      0.000
          OF    833.300    -19.897      0.000      9.134      0.000      0.000      0.000      0.000      0.010      0.000
          OF    836.600    -19.863      0.000      9.135      0.000      0.000      0.000      0.000      0.010      0.000
          OF    839.900    -19.829      0.000      9.136      0.000      0.000      0.000      0.000      0.010      0.000
          OF    843.200    -19.795      0.000      9.137      0.000      0.000      0.000      0.000      0.010      0.000
          OF    846.500    -19.761      0.000      9.138      0.000      0.000      0.000      0.000      0.010      0.000
          OF    849.700    -19.727      0.000      9.139      0.000      0.000      0.000      0.000      0.010      0.000
          OF    853.000    -19.693      0.000      9.140      0.000      0.000      0.000      0.000      0.010      0.000
          OF    856.300    -19.659      0.000      9.141      0.000      0.000      0.000      0.000      0.010      0.000
          OF    859.600    -19.625      0.000      9.142      0.000      0.000      0.000      0.000      0.010      0.000
          OF    862.900    -19.591      0.000      9.143      0.000      0.000      0.000      0.000      0.010      0.000
          OF    866.100    -19.557      0.000      9.144      0.000      0.000      0.000      0.000      0.010      0.000
          OF    869.400    -19.523      0.000      9.145      0.000      0.000      0.000      0.000      0.010      0.000
          OF    872.700    -19.489      0.000      9.146      0.000      0.000      0.000      0.000      0.010      0.000
          OF    876.000    -19.455      0.000      9.147      0.000      0.000      0.000      0.000      0.010      0.000
          OF    879.300    -19.421      0.000      9.148      0.000      0.000      0.000      0.000      0.010      0.000
          OF    882.500    -19.387      0.000      9.149      0.000      0.000      0.000      0.000      0.010      0.000
          OF    885.800    -19.353      0.000      9.150      0.000      0.000      0.000      0.000      0.010      0.000
          OF    889.100    -19.318      0.000      9.151      0.000      0.000      0.000      0.000      0.010      0.000
          OF    892.400    -19.284      0.000      9.152      0.000      0.000      0.000      0.000      0.010      0.000
          OF    895.700    -19.250      0.000      9.153      0.000      0.000      0.000      0.000      0.010      0.000
          OF    898.900    -19.216      0.000      9.154      0.000      0.000      0.000      0.000      0.011      0.000
          OF    902.200    -19.180      0.000      9.155      0.000      0.000      0.000      0.000      0.012      0.000
          OF    905.500    -19.134      0.000      9.156      0.000      0.000      0.000      0.000      0.014      0.000
          OF    908.800    -19.088      0.000      9.156      0.000      0.000      0.000      0.000      0.014      0.000
          OF    912.100    -19.042      0.000      9.158      0.000      0.000      0.000      0.000      0.014      0.000
          OF    915.400    -18.996      0.000      9.158      0.000      0.000      0.000      0.000      0.014      0.000
          OF    918.600    -18.951      0.000      9.159      0.000      0.000      0.000      0.000      0.014      0.000
          OF    921.900    -18.905      0.000      9.160      0.000      0.000      0.000      0.000      0.014      0.000
          OF    925.200    -18.859      0.000      9.161      0.000      0.000      0.000      0.000      0.014      0.000
          OF    928.500    -18.813      0.000      9.162      0.000      0.000      0.000      0.000      0.014      0.000
          OF    931.800    -18.767      0.000      9.163      0.000      0.000      0.000      0.000      0.014      0.000
          OF    935.000    -18.721      0.000      9.164      0.000      0.000      0.000      0.000      0.014      0.000
          OF    938.300    -18.675      0.000      9.165      0.000      0.000      0.000      0.000      0.014      0.000
          OF    941.600    -18.629      0.000      9.166      0.000      0.000      0.000      0.000      0.014      0.000
          OF    944.900    -18.583      0.000      9.167      0.000      0.000      0.000      0.000      0.014      0.000
          OF    948.200    -18.537      0.000      9.167      0.000      0.000      0.000      0.000      0.014      0.000
          OF    951.400    -18.491      0.000      9.168      0.000      0.000      0.000      0.000      0.014      0.000
          OF    954.700    -18.445      0.000      9.169      0.000      0.000      0.000      0.000      0.014      0.000
          OF    958.000    -18.399      0.000      9.170      0.000      0.000      0.000      0.000      0.014      0.000
          OF    961.300    -18.353      0.000      9.171      0.000      0.000      0.000      0.000      0.014      0.000
          OF    964.600    -18.308      0.000      9.172      0.000      0.000      0.000      0.000      0.014      0.000
          OF    967.800    -18.262      0.000      9.173      0.000      0.000      0.000      0.000      0.014      0.000
          OF    971.100    -18.216      0.000      9.174      0.000      0.000      0.000      0.000      0.014      0.000
          OF    974.400    -18.169      0.000      9.175      0.000      0.000      0.000      0.000      0.015      0.000
          OF    977.700    -18.119      0.000      9.176      0.000      0.000      0.000      0.000      0.015      0.000
          OF    981.000    -18.069      0.000      9.177      0.000      0.000      0.000      0.000      0.015      0.000
          OF    984.200    -18.019      0.000      9.177      0.000      0.000      0.000      0.000      0.015      0.000
          OF    987.500    -17.969      0.000      9.179      0.000      0.000      0.000      0.000      0.015      0.000
          OF    990.800    -17.920      0.000      9.179      0.000      0.000      0.000      0.000      0.015      0.000
          OF    994.100    -17.870      0.000      9.181      0.000      0.000      0.000      0.000      0.015      0.000
          OF    997.400    -17.820      0.000      9.181      0.000      0.000      0.000      0.000      0.015      0.000
          OF   1000.700    -17.770      0.000      9.182      0.000      0.000      0.000      0.000      0.015      0.000
          OF   1003.900    -17.720      0.000      9.183      0.000      0.000      0.000      0.000      0.015      0.000
          OF   1007.200    -17.671      0.000      9.184      0.000      0.000      0.000      0.000      0.015      0.000
          OF   1010.500    -17.621      0.000      9.185      0.000      0.000      0.000      0.000      0.015      0.000
          OF   1013.800    -17.571      0.000      9.186      0.000      0.000      0.000      0.000      0.015      0.000
          OF   1017.100    -17.521      0.000      9.187      0.000      0.000      0.000      0.000      0.015      0.000
          OF   1020.300    -17.471      0.000      9.188      0.000      0.000      0.000      0.000      0.016      0.000
          OF   1023.600    -17.419      0.000      9.189      0.000      0.000      0.000      0.000      0.016      0.000
          OF   1026.900    -17.366      0.000      9.190      0.000      0.000      0.000      0.000      0.016      0.000
          OF   1030.200    -17.313      0.000      9.191      0.000      0.000      0.000      0.000      0.016      0.000
          OF   1033.500    -17.259      0.000      9.192      0.000      0.000      0.000      0.000      0.016      0.000
          OF   1036.700    -17.206      0.000      9.193      0.000      0.000      0.000      0.000      0.016      0.000
          OF   1040.000    -17.153      0.000      9.194      0.000      0.000      0.000      0.000      0.016      0.000
          OF   1043.300    -17.100      0.000      9.195      0.000      0.000      0.000      0.000      0.016      0.000
          OF   1046.600    -17.046      0.000      9.196      0.000      0.000      0.000      0.000      0.016      0.000
          OF   1049.900    -16.993      0.000      9.197      0.000      0.000      0.000      0.000      0.016      0.000
          OF   1053.100    -16.940      0.000      9.198      0.000      0.000      0.000      0.000      0.016      0.000
          OF   1056.400    -16.887      0.000      9.199      0.000      0.000      0.000      0.000      0.016      0.000
          OF   1059.700    -16.833      0.000      9.200      0.000      0.000      0.000      0.000      0.016      0.000
          OF   1063.000    -16.780      0.000      9.201      0.000      0.000      0.000      0.000      0.016      0.000
          OF   1066.300    -16.727      0.000      9.203      0.000      0.000      0.000      0.000      0.016      0.000
          OF   1069.600    -16.673      0.000      9.203      0.000      0.000      0.000      0.000      0.016      0.000
          OF   1072.800    -16.620      0.000      9.205      0.000      0.000      0.000      0.000      0.016      0.000
          OF   1076.100    -16.567      0.000      9.206      0.000      0.000      0.000      0.000      0.016      0.000
          OF   1079.400    -16.514      0.000      9.207      0.000      0.000      0.000      0.000      0.016      0.000
          OF   1082.700    -16.460      0.000      9.208      0.000      0.000      0.000      0.000      0.016      0.000
          OF   1086.000    -16.407      0.000      9.209      0.000      0.000      0.000      0.000      0.016      0.000
          OF   1089.200    -16.354      0.000      9.210      0.000      0.000      0.000      0.000      0.016      0.000
          OF   1092.500    -16.301      0.000      9.211      0.000      0.000      0.000      0.000      0.016      0.000
          OF   1095.800    -16.247      0.000      9.212      0.000      0.000      0.000      0.000      0.016      0.000
          OF   1099.100    -16.194      0.000      9.214      0.000      0.000      0.000      0.000      0.016      0.000
          OF   1102.400    -16.141      0.000      9.215      0.000      0.000      0.000      0.000      0.016      0.000
          OF   1105.600    -16.088      0.000      9.216      0.000      0.000      0.000      0.000      0.016      0.000
          OF   1108.900    -16.034      0.000      9.217      0.000      0.000      0.000      0.000      0.016      0.000
          OF   1112.200    -15.981      0.000      9.218      0.000      0.000      0.000      0.000      0.016      0.000
          OF   1115.500    -15.928      0.000      9.220      0.000      0.000      0.000      0.000      0.016      0.000
          OF   1118.800    -15.875      0.000      9.221      0.000      0.000      0.000      0.000      0.016      0.000
          OF   1122.000    -15.821      0.000      9.222      0.000      0.000      0.000      0.000      0.016      0.000
          OF   1125.300    -15.768      0.000      9.223      0.000      0.000      0.000      0.000      0.016      0.000
          OF   1128.600    -15.715      0.000      9.224      0.000      0.000      0.000      0.000      0.016      0.000
          OF   1131.900    -15.662      0.000      9.226      0.000      0.000      0.000      0.000      0.016      0.000
          OF   1135.200    -15.608      0.000      9.227      0.000      0.000      0.000      0.000      0.016      0.000
          OF   1138.400    -15.555      0.000      9.228      0.000      0.000      0.000      0.000      0.017      0.000
          OF   1141.700    -15.496      0.000      9.229      0.000      0.000      0.000      0.000      0.019      0.000
          OF   1145.000    -15.428      0.000      9.230      0.000      0.000      0.000      0.000      0.021      0.000
          OF   1148.300    -15.355      0.000      9.232      0.000      0.000      0.000      0.000      0.022      0.000
          OF   1151.600    -15.281      0.000      9.233      0.000      0.000      0.000      0.000      0.022      0.000
          OF   1154.900    -15.208      0.000      9.234      0.000      0.000      0.000      0.000      0.023      0.000
          OF   1158.100    -15.135      0.000      9.235      0.000      0.000      0.000      0.000      0.023      0.000
          OF   1161.400    -15.062      0.000      9.236      0.000      0.000      0.000      0.000      0.022      0.000
          OF   1164.700    -14.989      0.000      9.238      0.000      0.000      0.000      0.000      0.022      0.000
          OF   1168.000    -14.915      0.000      9.239      0.000      0.000      0.000      0.000      0.022      0.000
          OF   1171.300    -14.842      0.000      9.240      0.000      0.000      0.000      0.000      0.023      0.000
          OF   1174.500    -14.769      0.000      9.241      0.000      0.000      0.000      0.000      0.023      0.000
          OF   1177.800    -14.696      0.000      9.243      0.000      0.000      0.000      0.000      0.022      0.000
          OF   1181.100    -14.623      0.000      9.244      0.000      0.000      0.000      0.000      0.022      0.000
          OF   1184.400    -14.549      0.000      9.246      0.000      0.000      0.000      0.000      0.022      0.000
          OF   1187.700    -14.476      0.000      9.247      0.000      0.000      0.000      0.000      0.023      0.000
          OF   1190.900    -14.403      0.000      9.248      0.000      0.000      0.000      0.000      0.023      0.000
          OF   1194.200    -14.330      0.000      9.250      0.000      0.000      0.000      0.000      0.022      0.000
          OF   1197.500    -14.257      0.000      9.251      0.000      0.000      0.000      0.000      0.022      0.000
          OF   1200.800    -14.183      0.000      9.252      0.000      0.000      0.000      0.000      0.022      0.000
          OF   1204.100    -14.110      0.000      9.254      0.000      0.000      0.000      0.000      0.023      0.000
          OF   1207.300    -14.037      0.000      9.256      0.000      0.000      0.000      0.000      0.023      0.000
          OF   1210.600    -13.964      0.000      9.257      0.000      0.000      0.000      0.000      0.022      0.000
          OF   1213.900    -13.891      0.000      9.259      0.000      0.000      0.000      0.000      0.022      0.000
          OF   1217.200    -13.817      0.000      9.260      0.000      0.000      0.000      0.000      0.022      0.000
          OF   1220.500    -13.744      0.000      9.262      0.000      0.000      0.000      0.000      0.022      0.000
          OF   1223.800    -13.671      0.000      9.264      0.000      0.000      0.000      0.000      0.023      0.000
          OF   1227.000    -13.598      0.000      9.265      0.000      0.000      0.000      0.000      0.023      0.000
          OF   1230.300    -13.525      0.000      9.267      0.000      0.000      0.000      0.000      0.022      0.000
          OF   1233.600    -13.451      0.000      9.268      0.000      0.000      0.000      0.000      0.022      0.000
          OF   1236.900    -13.378      0.000      9.270      0.000      0.000      0.000      0.000      0.022      0.000
          OF   1240.200    -13.305      0.000      9.272      0.000      0.000      0.000      0.000      0.023      0.000
          OF   1243.400    -13.232      0.000      9.274      0.000      0.000      0.000      0.000      0.023      0.000
          OF   1246.700    -13.159      0.000      9.275      0.000      0.000      0.000      0.000      0.022      0.000
          OF   1250.000    -13.085      0.000      9.277      0.000      0.000      0.000      0.000      0.022      0.000
          OF   1253.300    -13.012      0.000      9.279      0.000      0.000      0.000      0.000      0.022      0.000
          OF   1256.600    -12.939      0.000      9.281      0.000      0.000      0.000      0.000      0.022      0.000
          OF   1259.800    -12.872      0.000      9.283      0.000      0.000      0.000      0.000      0.021      0.000
          OF   1263.100    -12.805      0.000      9.284      0.000      0.000      0.000      0.000      0.020      0.000
          OF   1266.400    -12.739      0.000      9.286      0.000      0.000      0.000      0.000      0.020      0.000
          OF   1269.700    -12.672      0.000      9.288      0.000      0.000      0.000      0.000      0.020      0.000
          OF   1273.000    -12.605      0.000      9.290      0.000      0.000      0.000      0.000      0.021      0.000
          OF   1276.200    -12.539      0.000      9.292      0.000      0.000      0.000      0.000      0.021      0.000
          OF   1279.500    -12.472      0.000      9.294      0.000      0.000      0.000      0.000      0.020      0.000
          OF   1282.800    -12.405      0.000      9.296      0.000      0.000      0.000      0.000      0.020      0.000
          OF   1286.100    -12.339      0.000      9.298      0.000      0.000      0.000      0.000      0.020      0.000
          OF   1289.400    -12.274      0.000      9.300      0.000      0.000      0.000      0.000      0.020      0.000
          OF   1292.600    -12.212      0.000      9.302      0.000      0.000      0.000      0.000      0.019      0.000
          OF   1295.900    -12.149      0.000      9.304      0.000      0.000      0.000      0.000      0.019      0.000
          OF   1299.200    -12.087      0.000      9.306      0.000      0.000      0.000      0.000      0.019      0.000
          OF   1302.500    -12.024      0.000      9.308      0.000      0.000      0.000      0.000      0.019      0.000
          OF   1305.800    -11.962      0.000      9.310      0.000      0.000      0.000      0.000      0.019      0.000
          OF   1309.100    -11.900      0.000      9.312      0.000      0.000      0.000      0.000      0.019      0.000
          OF   1312.300    -11.837      0.000      9.314      0.000      0.000      0.000      0.000      0.019      0.000
          OF   1315.600    -11.775      0.000      9.316      0.000      0.000      0.000      0.000      0.019      0.000
          OF   1318.900    -11.712      0.000      9.318      0.000      0.000      0.000      0.000      0.019      0.000
          OF   1322.200    -11.650      0.000      9.321      0.000      0.000      0.000      0.000      0.019      0.000
          OF   1325.500    -11.587      0.000      9.323      0.000      0.000      0.000      0.000      0.019      0.000
          OF   1328.700    -11.525      0.000      9.325      0.000      0.000      0.000      0.000      0.019      0.000
          OF   1332.000    -11.463      0.000      9.327      0.000      0.000      0.000      0.000      0.019      0.000
          OF   1335.300    -11.400      0.000      9.329      0.000      0.000      0.000      0.000      0.019      0.000
          OF   1338.600    -11.338      0.000      9.331      0.000      0.000      0.000      0.000      0.019      0.000
          OF   1341.900    -11.275      0.000      9.333      0.000      0.000      0.000      0.000      0.019      0.000
          OF   1345.100    -11.213      0.000      9.335      0.000      0.000      0.000      0.000      0.019      0.000
          OF   1348.400    -11.150      0.000      9.337      0.000      0.000      0.000      0.000      0.019      0.000
          OF   1351.700    -11.088      0.000      9.339      0.000      0.000      0.000      0.000      0.019      0.000
          OF   1355.000    -11.025      0.000      9.342      0.000      0.000      0.000      0.000      0.019      0.000
          OF   1358.300    -10.963      0.000      9.344      0.000      0.000      0.000      0.000      0.019      0.000
          OF   1361.500    -10.901      0.000      9.346      0.000      0.000      0.000      0.000      0.019      0.000
          OF   1364.800    -10.838      0.000      9.348      0.000      0.000      0.000      0.000      0.019      0.000
          OF   1368.100    -10.776      0.000      9.350      0.000      0.000      0.000      0.000      0.019      0.000
          OF   1371.400    -10.713      0.000      9.352      0.000      0.000      0.000      0.000      0.019      0.000
          OF   1374.700    -10.651      0.000      9.354      0.000      0.000      0.000      0.000      0.019      0.000
          OF   1377.900    -10.591      0.000      9.357      0.000      0.000      0.000      0.000      0.018      0.000
          OF   1381.200    -10.537      0.000      9.359      0.000      0.000      0.000      0.000      0.016      0.000
          OF   1384.500    -10.484      0.000      9.361      0.000      0.000      0.000      0.000      0.016      0.000
          OF   1387.800    -10.430      0.000      9.363      0.000      0.000      0.000      0.000      0.016      0.000
          OF   1391.100    -10.377      0.000      9.365      0.000      0.000      0.000      0.000      0.016      0.000
          OF   1394.400    -10.324      0.000      9.368      0.000      0.000      0.000      0.000      0.016      0.000
          OF   1397.600    -10.270      0.000      9.370      0.000      0.000      0.000      0.000      0.016      0.000
          OF   1400.900    -10.217      0.000      9.372      0.000      0.000      0.000      0.000      0.016      0.000
          OF   1404.200    -10.164      0.000      9.374      0.000      0.000      0.000      0.000      0.016      0.000
          OF   1407.500    -10.111      0.000      9.377      0.000      0.000      0.000      0.000      0.016      0.000
          OF   1410.800    -10.057      0.000      9.379      0.000      0.000      0.000      0.000      0.016      0.000
          OF   1414.000    -10.004      0.000      9.381      0.000      0.000      0.000      0.000      0.016      0.000
          OF   1417.300     -9.951      0.000      9.383      0.000      0.000      0.000      0.000      0.016      0.000
          OF   1420.600     -9.898      0.000      9.385      0.000      0.000      0.000      0.000      0.016      0.000
          OF   1423.900     -9.845      0.000      9.387      0.000      0.000      0.000      0.000      0.016      0.000
          OF   1427.200     -9.792      0.000      9.390      0.000      0.000      0.000      0.000      0.016      0.000
          OF   1430.400     -9.738      0.000      9.392      0.000      0.000      0.000      0.000      0.016      0.000
          OF   1433.700     -9.685      0.000      9.394      0.000      0.000      0.000      0.000      0.016      0.000
          OF   1437.000     -9.632      0.000      9.396      0.000      0.000      0.000      0.000      0.016      0.000
          OF   1440.300     -9.578      0.000      9.398      0.000      0.000      0.000      0.000      0.016      0.000
          OF   1443.600     -9.525      0.000      9.400      0.000      0.000      0.000      0.000      0.016      0.000
          OF   1446.800     -9.472      0.000      9.403      0.000      0.000      0.000      0.000      0.016      0.000
          OF   1450.100     -9.419      0.000      9.405      0.000      0.000      0.000      0.000      0.016      0.000
          OF   1453.400     -9.365      0.000      9.407      0.000      0.000      0.000      0.000      0.016      0.000
          OF   1456.700     -9.312      0.000      9.409      0.000      0.000      0.000      0.000      0.016      0.000
          OF   1460.000     -9.259      0.000      9.411      0.000      0.000      0.000      0.000      0.016      0.000
          OF   1463.300     -9.206      0.000      9.413      0.000      0.000      0.000      0.000      0.016      0.000
          OF   1466.500     -9.152      0.000      9.415      0.000      0.000      0.000      0.000      0.016      0.000
          OF   1469.800     -9.099      0.000      9.417      0.000      0.000      0.000      0.000      0.016      0.000
          OF   1473.100     -9.046      0.000      9.419      0.000      0.000      0.000      0.000      0.017      0.000
          OF   1476.400     -8.989      0.000      9.421      0.000      0.000      0.000      0.000      0.020      0.000
          OF   1479.700     -8.913      0.000      9.423      0.000      0.000      0.000      0.000      0.023      0.000
          OF   1482.900     -8.838      0.000      9.425      0.000      0.000      0.000      0.000      0.023      0.000
          OF   1486.200     -8.762      0.000      9.427      0.000      0.000      0.000      0.000      0.023      0.000
          OF   1489.500     -8.687      0.000      9.429      0.000      0.000      0.000      0.000      0.023      0.000
          OF   1492.800     -8.612      0.000      9.431      0.000      0.000      0.000      0.000      0.023      0.000
          OF   1496.100     -8.536      0.000      9.433      0.000      0.000      0.000      0.000      0.023      0.000
          OF   1499.300     -8.461      0.000      9.435      0.000      0.000      0.000      0.000      0.023      0.000
          OF   1502.600     -8.385      0.000      9.437      0.000      0.000      0.000      0.000      0.023      0.000
          OF   1505.900     -8.310      0.000      9.439      0.000      0.000      0.000      0.000      0.023      0.000
          OF   1509.200     -8.235      0.000      9.441      0.000      0.000      0.000      0.000      0.023      0.000
          OF   1512.500     -8.159      0.000      9.443      0.000      0.000      0.000      0.000      0.024      0.000
          OF   1515.700     -8.078      0.000      9.445      0.000      0.000      0.000      0.000      0.025      0.000
          OF   1519.000     -7.995      0.000      9.447      0.000      0.000      0.000      0.000      0.025      0.000
          OF   1522.300     -7.911      0.000      9.449      0.000      0.000      0.000      0.000      0.025      0.000
          OF   1525.600     -7.827      0.000      9.451      0.000      0.000      0.000      0.000      0.025      0.000
          OF   1528.900     -7.743      0.000      9.453      0.000      0.000      0.000      0.000      0.026      0.000
          OF   1532.100     -7.659      0.000      9.455      0.000      0.000      0.000      0.000      0.026      0.000
          OF   1535.400     -7.576      0.000      9.457      0.000      0.000      0.000      0.000      0.025      0.000
          OF   1538.700     -7.492      0.000      9.460      0.000      0.000      0.000      0.000      0.025      0.000
          OF   1542.000     -7.408      0.000      9.462      0.000      0.000      0.000      0.000      0.025      0.000
          OF   1545.300     -7.324      0.000      9.464      0.000      0.000      0.000      0.000      0.025      0.000
          OF   1548.600     -7.240      0.000      9.466      0.000      0.000      0.000      0.000      0.026      0.000
          OF   1551.800     -7.156      0.000      9.468      0.000      0.000      0.000      0.000      0.026      0.000
          OF   1555.100     -7.073      0.000      9.471      0.000      0.000      0.000      0.000      0.025      0.000
          OF   1558.400     -6.989      0.000      9.473      0.000      0.000      0.000      0.000      0.025      0.000
          OF   1561.700     -6.905      0.000      9.475      0.000      0.000      0.000      0.000      0.025      0.000
          OF   1565.000     -6.821      0.000      9.478      0.000      0.000      0.000      0.000      0.026      0.000
          OF   1568.200     -6.737      0.000      9.480      0.000      0.000      0.000      0.000      0.026      0.000
          OF   1571.500     -6.654      0.000      9.482      0.000      0.000      0.000      0.000      0.025      0.000
          OF   1574.800     -6.570      0.000      9.485      0.000      0.000      0.000      0.000      0.025      0.000
          OF   1578.100     -6.486      0.000      9.487      0.000      0.000      0.000      0.000      0.025      0.000
          OF   1581.400     -6.402      0.000      9.490      0.000      0.000      0.000      0.000      0.026      0.000
          OF   1584.600     -6.318      0.000      9.492      0.000      0.000      0.000      0.000      0.026      0.000
          OF   1587.900     -6.234      0.000      9.495      0.000      0.000      0.000      0.000      0.026      0.000
          OF   1591.200     -6.149      0.000      9.497      0.000      0.000      0.000      0.000      0.026      0.000
          OF   1594.500     -6.065      0.000      9.500      0.000      0.000      0.000      0.000      0.026      0.000
          OF   1597.800     -5.980      0.000      9.502      0.000      0.000      0.000      0.000      0.026      0.000
          OF   1601.000     -5.896      0.000      9.505      0.000      0.000      0.000      0.000      0.026      0.000
          OF   1604.300     -5.812      0.000      9.507      0.000      0.000      0.000      0.000      0.026      0.000
          OF   1607.600     -5.727      0.000      9.510      0.000      0.000      0.000      0.000      0.026      0.000
          OF   1610.900     -5.643      0.000      9.513      0.000      0.000      0.000      0.000      0.026      0.000
          OF   1614.200     -5.558      0.000      9.516      0.000      0.000      0.000      0.000      0.026      0.000
          OF   1617.500     -5.474      0.000      9.518      0.000      0.000      0.000      0.000      0.026      0.000
          OF   1620.700     -5.390      0.000      9.521      0.000      0.000      0.000      0.000      0.026      0.000
          OF   1624.000     -5.305      0.000      9.524      0.000      0.000      0.000      0.000      0.026      0.000
          OF   1627.300     -5.221      0.000      9.526      0.000      0.000      0.000      0.000      0.026      0.000
          OF   1630.600     -5.136      0.000      9.529      0.000      0.000      0.000      0.000      0.026      0.000
          OF   1633.900     -5.052      0.000      9.532      0.000      0.000      0.000      0.000      0.026      0.000
          OF   1637.100     -4.968      0.000      9.535      0.000      0.000      0.000      0.000      0.026      0.000
          OF   1640.400     -4.883      0.000      9.537      0.000      0.000      0.000      0.000      0.026      0.000
          OF   1643.700     -4.799      0.000      9.540      0.000      0.000      0.000      0.000      0.026      0.000
          OF   1647.000     -4.714      0.000      9.543      0.000      0.000      0.000      0.000      0.026      0.000
          OF   1650.300     -4.630      0.000      9.546      0.000      0.000      0.000      0.000      0.026      0.000
          OF   1653.500     -4.546      0.000      9.549      0.000      0.000      0.000      0.000      0.025      0.000
          OF   1656.800     -4.467      0.000      9.552      0.000      0.000      0.000      0.000      0.024      0.000
          OF   1660.100     -4.388      0.000      9.555      0.000      0.000      0.000      0.000      0.024      0.000
          OF   1663.400     -4.309      0.000      9.557      0.000      0.000      0.000      0.000      0.024      0.000
          OF   1666.700     -4.230      0.000      9.561      0.000      0.000      0.000      0.000      0.024      0.000
          OF   1669.900     -4.151      0.000      9.564      0.000      0.000      0.000      0.000      0.024      0.000
          OF   1673.200     -4.072      0.000      9.566      0.000      0.000      0.000      0.000      0.024      0.000
          OF   1676.500     -3.993      0.000      9.570      0.000      0.000      0.000      0.000      0.024      0.000
          OF   1679.800     -3.914      0.000      9.572      0.000      0.000      0.000      0.000      0.024      0.000
          OF   1683.100     -3.835      0.000      9.575      0.000      0.000      0.000      0.000      0.024      0.000
          OF   1686.300     -3.756      0.000      9.579      0.000      0.000      0.000      0.000      0.023      0.000
          OF   1689.600     -3.688      0.000      9.582      0.000      0.000      0.000      0.000      0.020      0.000
          OF   1692.900     -3.623      0.000      9.585      0.000      0.000      0.000      0.000      0.020      0.000
          OF   1696.200     -3.558      0.000      9.588      0.000      0.000      0.000      0.000      0.020      0.000
          OF   1699.500     -3.493      0.000      9.591      0.000      0.000      0.000      0.000      0.020      0.000
          OF   1702.800     -3.428      0.000      9.594      0.000      0.000      0.000      0.000      0.020      0.000
          OF   1706.000     -3.363      0.000      9.598      0.000      0.000      0.000      0.000      0.020      0.000
          OF   1709.300     -3.298      0.000      9.601      0.000      0.000      0.000      0.000      0.020      0.000
          OF   1712.600     -3.234      0.000      9.604      0.000      0.000      0.000      0.000      0.020      0.000
          OF   1715.900     -3.168      0.000      9.607      0.000      0.000      0.000      0.000      0.020      0.000
          OF   1719.200     -3.104      0.000      9.610      0.000      0.000      0.000      0.000      0.020      0.000
          OF   1722.400     -3.039      0.000      9.613      0.000      0.000      0.000      0.000      0.020      0.000
          OF   1725.700     -2.974      0.000      9.616      0.000      0.000      0.000      0.000      0.020      0.000
          OF   1729.000     -2.909      0.000      9.619      0.000      0.000      0.000      0.000      0.020      0.000
          OF   1732.300     -2.844      0.000      9.622      0.000      0.000      0.000      0.000      0.020      0.000
          OF   1735.600     -2.779      0.000      9.625      0.000      0.000      0.000      0.000      0.020      0.000
          OF   1738.800     -2.714      0.000      9.628      0.000      0.000      0.000      0.000      0.020      0.000
          OF   1742.100     -2.649      0.000      9.632      0.000      0.000      0.000      0.000      0.020      0.000
          OF   1745.400     -2.584      0.000      9.635      0.000      0.000      0.000      0.000      0.020      0.000
          OF   1748.700     -2.519      0.000      9.638      0.000      0.000      0.000      0.000      0.020      0.000
          OF   1752.000     -2.454      0.000      9.641      0.000      0.000      0.000      0.000      0.020      0.000
          OF   1755.200     -2.389      0.000      9.644      0.000      0.000      0.000      0.000      0.020      0.000
          OF   1758.500     -2.324      0.000      9.647      0.000      0.000      0.000      0.000      0.020      0.000
          OF   1761.800     -2.259      0.000      9.650      0.000      0.000      0.000      0.000      0.020      0.000
          OF   1765.100     -2.194      0.000      9.653      0.000      0.000      0.000      0.000      0.020      0.000
          OF   1768.400     -2.129      0.000      9.656      0.000      0.000      0.000      0.000      0.020      0.000
          OF   1771.600     -2.065      0.000      9.659      0.000      0.000      0.000      0.000      0.021      0.000
          OF   1774.900     -1.991      0.000      9.662      0.000      0.000      0.000      0.000      0.023      0.000
          OF   1778.200     -1.915      0.000      9.665      0.000      0.000      0.000      0.000      0.023      0.000
          OF   1781.500     -1.839      0.000      9.668      0.000      0.000      0.000      0.000      0.023      0.000
          OF   1784.800     -1.763      0.000      9.671      0.000      0.000      0.000      0.000      0.022      0.000
          OF   1788.100     -1.695      0.000      9.674      0.000      0.000      0.000      0.000      0.020      0.000
          OF   1791.300     -1.631      0.000      9.677      0.000      0.000      0.000      0.000      0.020      0.000
          OF   1794.600     -1.566      0.000      9.680      0.000      0.000      0.000      0.000      0.020      0.000
          OF   1797.900     -1.502      0.000      9.683      0.000      0.000      0.000      0.000      0.020      0.000
          OF   1801.200     -1.437      0.000      9.686      0.000      0.000      0.000      0.000      0.020      0.000
          OF   1804.500     -1.373      0.000      9.689      0.000      0.000      0.000      0.000      0.020      0.000
          OF   1807.700     -1.308      0.000      9.692      0.000      0.000      0.000      0.000      0.021      0.000
          OF   1811.000     -1.240      0.000      9.695      0.000      0.000      0.000      0.000      0.021      0.000
          OF   1814.300     -1.172      0.000      9.698      0.000      0.000      0.000      0.000      0.021      0.000
          OF   1817.600     -1.105      0.000      9.701      0.000      0.000      0.000      0.000      0.021      0.000
          OF   1820.900     -1.037      0.000      9.704      0.000      0.000      0.000      0.000      0.021      0.000
          OF   1824.100     -0.969      0.000      9.707      0.000      0.000      0.000      0.000      0.021      0.000
          OF   1827.400     -0.901      0.000      9.710      0.000      0.000      0.000      0.000      0.021      0.000
          OF   1830.700     -0.834      0.000      9.713      0.000      0.000      0.000      0.000      0.021      0.000
          OF   1834.000     -0.766      0.000      9.716      0.000      0.000      0.000      0.000      0.021      0.000
          OF   1837.300     -0.698      0.000      9.719      0.000      0.000      0.000      0.000      0.021      0.000
          OF   1840.500     -0.631      0.000      9.722      0.000      0.000      0.000      0.000      0.021      0.000
          OF   1843.800     -0.563      0.000      9.725      0.000      0.000      0.000      0.000      0.021      0.000
          OF   1847.100     -0.495      0.000      9.728      0.000      0.000      0.000      0.000      0.021      0.000
          OF   1850.400     -0.428      0.000      9.731      0.000      0.000      0.000      0.000      0.021      0.000
          OF   1853.700     -0.360      0.000      9.734      0.000      0.000      0.000      0.000      0.021      0.000
          OF   1857.000     -0.292      0.000      9.737      0.000      0.000      0.000      0.000      0.021      0.000
          OF   1860.200     -0.225      0.000      9.740      0.000      0.000      0.000      0.000      0.021      0.000
          OF   1863.500     -0.157      0.000      9.743      0.000      0.000      0.000      0.000      0.021      0.000
          OF   1866.800     -0.089      0.000      9.746      0.000      0.000      0.000      0.000      0.021      0.000
          OF   1870.100     -0.022      0.000      9.749      0.000      0.000      0.000      0.000      0.025      0.000
          IF   1873.400      0.076      0.000      9.751      0.000      0.000      0.000      0.000      0.028      0.000
          IF   1876.600      0.162      0.000      9.754      0.000      0.000      0.000      0.000      0.023      0.000
          IF   1879.900      0.223      0.000      9.757      0.000      0.000      0.000      0.000      0.020      0.000
          IF   1883.200      0.293      0.000      9.760      0.000      0.000      0.000      0.000      0.023      0.000
          IF   1886.500      0.376      0.000      9.764      0.000      0.000      0.000      0.000      0.022      0.000
          IF   1889.800      0.439      0.000      9.767      0.000      0.000      0.000      0.000      0.015      0.000
          IF   1893.000      0.472      0.000      9.770      0.000      0.000      0.000      0.000      0.012      0.000
          IF   1896.300      0.517      0.000      9.773      0.000      0.000      0.000      0.000      0.016      0.000
          IF   1899.600      0.578      0.000      9.776      0.000      0.000      0.000      0.000      0.020      0.000
          IF   1902.900      0.646      0.000      9.779      0.000      0.000      0.000      0.000      0.023      0.000
          IF   1906.200      0.728      0.000      9.782      0.000      0.000      0.000      0.000      0.026      0.000
          IF   1909.400      0.816      0.000      9.785      0.000      0.000      0.000      0.000      0.029      0.000
          IF   1912.700      0.917      0.000      9.787      0.000      0.000      0.000      0.000      0.030      0.000
          IF   1916.000      1.017      0.000      9.790      0.000      0.000      0.000      0.000      0.028      0.000
          IF   1919.300      1.102      0.000      9.793      0.000      0.000      0.000      0.000      0.025      0.000
          IF   1922.600      1.186      0.000      9.796      0.000      0.000      0.000      0.000      0.026      0.000
          IF   1925.800      1.270      0.000      9.798      0.000      0.000      0.000      0.000      0.024      0.000
          IF   1929.100      1.340      0.000      9.802      0.000      0.000      0.000      0.000      0.019      0.000
          IF   1932.400      1.397      0.000      9.805      0.000      0.000      0.000      0.000      0.017      0.000
          IF   1935.700      1.454      0.000      9.808      0.000      0.000      0.000      0.000      0.015      0.000
          IF   1939.000      1.494      0.000      9.812      0.000      0.000      0.000      0.000      0.010      0.000
          IF   1942.300      1.522      0.000      9.815      0.000      0.000      0.000      0.000      0.013      0.000
          IF   1945.500      1.579      0.000      9.818      0.000      0.000      0.000      0.000      0.026      0.000
          IF   1948.800      1.694      0.000      9.821      0.000      0.000      0.000      0.000      0.035      0.000
          IF   1952.100      1.808      0.000      9.823      0.000      0.000      0.000      0.000      0.033      0.000
          IF   1955.400      1.915      0.000      9.826      0.000      0.000      0.000      0.000      0.033      0.000
          IF   1958.700      2.023      0.000      9.829      0.000      0.000      0.000      0.000      0.028      0.000
          IF   1961.900      2.099      0.000      9.832      0.000      0.000      0.000      0.000      0.020      0.000
          IF   1965.200      2.152      0.000      9.836      0.000      0.000      0.000      0.000      0.016      0.000
          IF   1968.500      2.206      0.000      9.839      0.000      0.000      0.000      0.000      0.016      0.000
          IF   1971.800      2.260      0.000      9.842      0.000      0.000      0.000      0.000      0.018      0.000
          IF   1975.100      2.328      0.000      9.846      0.000      0.000      0.000      0.000      0.025      0.000
          IF   1978.300      2.424      0.000      9.849      0.000      0.000      0.000      0.000      0.030      0.000
          IF   1981.600      2.521      0.000      9.852      0.000      0.000      0.000      0.000      0.029      0.000
          IF   1984.900      2.617      0.000      9.855      0.000      0.000      0.000      0.000      0.029      0.000
          IF   1988.200      2.714      0.000      9.858      0.000      0.000      0.000      0.000      0.030      0.000
          IF   1991.500      2.817      0.000      9.861      0.000      0.000      0.000      0.000      0.032      0.000
          IF   1994.700      2.921      0.000      9.865      0.000      0.000      0.000      0.000      0.032      0.000
          IF   1998.000      3.025      0.000      9.868      0.000      0.000      0.000      0.000      0.032      0.000
          IF   2001.300      3.129      0.000      9.872      0.000      0.000      0.000      0.000      0.030      0.000
          IF   2004.600      3.225      0.000      9.876      0.000      0.000      0.000      0.000      0.028      0.000
          IF   2007.900      3.313      0.000      9.880      0.000      0.000      0.000      0.000      0.027      0.000
          IF   2011.200      3.401      0.000      9.884      0.000      0.000      0.000      0.000      0.028      0.000
          IF   2014.400      3.494      0.000      9.888      0.000      0.000      0.000      0.000      0.033      0.000
          IF   2017.700      3.615      0.000      9.892      0.000      0.000      0.000      0.000      0.037      0.000
          IF   2021.000      3.736      0.000      9.895      0.000      0.000      0.000      0.000      0.037      0.000
          IF   2024.300      3.860      0.000      9.900      0.000      0.000      0.000      0.000      0.038      0.000
          IF   2027.600      3.986      0.000      9.904      0.000      0.000      0.000      0.000      0.028      0.000
          IF   2030.800      4.040      0.000      9.909      0.000      0.000      0.000      0.000      0.018      0.000
          IF   2034.100      4.105      0.000      9.915      0.000      0.000      0.000      0.000      0.026      0.000
          IF   2037.400      4.213      0.000      9.919      0.000      0.000      0.000      0.000      0.037      0.000
          IF   2040.700      4.348      0.000      9.924      0.000      0.000      0.000      0.000      0.058      0.000
          IF   2044.000      4.593      0.000      9.926      0.000      0.000      0.000      0.000      0.075      0.000
          IF   2047.200      4.838      0.000      9.930      0.000      0.000      0.000      0.000      0.075      0.000
          IF   2050.500      5.082      0.000      9.934      0.000      0.000      0.000      0.000      0.053      0.000
          IF   2053.800      5.190      0.000      9.943      0.000      0.000      0.000      0.000      0.029      0.000
          IF   2057.100      5.273      0.000      9.952      0.000      0.000      0.000      0.000      0.036      0.000
          IF   2060.400      5.427      0.000      9.960      0.000      0.000      0.000      0.000      0.119      0.000
          IF   2063.600      6.046      0.000      9.959      0.000      0.000      0.000      0.000      0.128      0.000
          IF   2066.900      6.261      0.000      9.972      0.000      0.000      0.000      0.000      0.062      0.000
          IF   2070.200      6.455      0.000      9.989      0.000      0.000      0.000      0.000      0.058      0.000
          IF   2073.500      6.643      0.000     10.008      0.000      0.000      0.000      0.000      0.065      0.000
          IF   2076.800      6.883      0.000     10.024      0.000      0.000      0.000      0.000      0.087      0.000
          IF   2080.000      7.206      0.000     10.044      0.000      0.000      0.000      0.000      0.138      0.000
          IF   2083.300      7.778      0.000     10.082      0.000      0.000      0.000      0.000      0.168      0.000
          IF   2086.600      8.315      0.000     10.136      0.000      0.000      0.000      0.000      0.119      0.000
          IF   2089.900      8.562      0.000     10.193      0.000      0.000      0.000      0.000      0.055      0.000
          IF   2093.200      8.678      0.000     10.259      0.000      0.000      0.000      0.000      0.041      0.000
          IF   2096.500      8.830      0.000     10.311      0.000      0.000      0.000      0.000      0.095      0.000
          IF   2110.300     10.311      0.000     10.311      0.000      0.000      0.000      0.000      0.107      0.000
          AS   2286.300      9.123      0.000      9.123      0.000      0.000      0.000      0.000     -0.042      0.000
[...]

                                                                          V23  EL=16     130

                                            1755.20           0.00

                                                                          V23  EL=16     130

                                            1758.50           0.00

                                                                          V23  EL=16     130

                                            1761.80           0.00

                                                                          V23  EL=16     130

                                            1765.10           0.00

                                                                          V23  EL=16     130

                                            1768.40           0.00

                                                                          V23  EL=16     130

                                            1771.60           0.00

                                                                          V23  EL=16     130

                                            1774.90           0.00

                                                                          V23  EL=16     130

                                            1778.20           0.00

                                                                          V23  EL=16     130

                                            1781.50           0.00

                                                                          V23  EL=16     130

                                            1784.80           0.00

                                                                          V23  EL=16     130

                                            1788.10           0.00

                                                                          V23  EL=16     130

                                            1791.30           0.00

                                                                          V23  EL=16     130

                                            1794.60           0.00

                                                                          V23  EL=16     130

                                            1797.90           0.00

                                                                          V23  EL=16     130

                                            1801.20           0.00

                                                                          V23  EL=16     130

                                            1804.50           0.00

                                                                          V23  EL=16     130

                                            1807.70           0.00

                                                                          V23  EL=16     130

                                            1811.00           0.00

                                                                          V23  EL=16     130

                                            1814.30           0.00

                                                                          V23  EL=16     130

                                            1817.60           0.00

                                                                          V23  EL=16     130

                                            1818.36           0.00

                                                                          V23  EL=15     130

                                            1820.90           0.00

                                                                          V23  EL=15     130

                                            1824.10           0.00

                                                                          V24  EL=15     140

                                            1827.40           0.00

                                                                          V24  EL=15     140

                                            1830.70           0.00

                                                                          V24  EL=15     140

                                            1834.00           0.00

                                                                          V24  EL=15     140

                                            1837.30           0.00

                                                                          V24  EL=15     140

                                            1840.50           0.00

                                                                          V24  EL=15     140

                                            1843.80           0.00

                                                                          V24  EL=15     140

                                            1847.10           0.00

                                                                          V24  EL=15     140

                                            1850.40           0.00

                                                                          V24  EL=15     140

                                            1853.70           0.00

                                                                          V24  EL=15     140

                                            1857.00           0.00

                                                                          V24  EL=15     140

                                            1860.20           0.00

                                                                          V24  EL=15     140

                                            1863.50           0.00

                                                                          V24  EL=15     140

                                            1866.80           0.00

                                                                          V24  EL=15     140

                                            1870.10           0.00

                                                                          V24  EL=15     140

                                            1873.40           0.00

                                                                          V24  EL=15     140

                                            1876.60           0.00

                                                                          V24  EL=15     140

                                            1879.90           0.00

                                                                          V24  EL=15     140

                                            1883.20           0.00

                                                                          V24  EL=15     140

                                            1886.50           0.00

                                                                          V24  EL=15     140

                                            1889.80           0.00

                                                                          V24  EL=15     140

                                            1893.00           0.00

                                                                          V24  EL=15     140

                                            1896.30           0.00

                                                                          V24  EL=15     140

                                            1899.60           0.00

                                                                          V24  EL=15     140

                                            1902.90           0.00

                                                                          V24  EL=15     140

                                            1906.20           0.00

                                                                          V24  EL=15     140

                                            1909.40           0.00

                                                                          V24  EL=15     140

                                            1912.70           0.00

                                                                          V24  EL=15     140

                                            1916.00           0.00

                                                                          V24  EL=15     140

                                            1917.46           0.00

                                                                          V24  EL=14     140

                                            1919.30           0.00

                                                                          V24  EL=14     140

                                            1922.60           0.00

                                                                          V24  EL=14     140

                                            1925.80           0.00

                                                                          V24  EL=14     140

                                            1929.10           0.00

                                                                          V24  EL=14     140

                                            1932.40           0.00

                                                                          V24  EL=14     140

                                            1935.70           0.00

                                                                          V24  EL=14     140

                                            1939.00           0.00

                                                                          V24  EL=14     140

                                            1942.30           0.00

                                                                          V24  EL=14     140

                                            1945.50           0.00

                                                                          V24  EL=14     140

                                            1948.80           0.00

                                                                          V24  EL=14     140

                                            1952.10           0.00

                                                                          V24  EL=14     140

                                            1955.40           0.00

                                                                          V24  EL=14     140

                                            1958.70           0.00

                                                                          V24  EL=14     140

                                            1961.90           0.00

                                                                          V24  EL=14     140

                                            1965.20           0.00

                                                                          V24  EL=14     140

                                            1968.50           0.00

                                                                          V24  EL=14     140

                                            1971.80           0.00

                                                                          V24  EL=14     140

                                            1975.10           0.00

                                                                          V24  EL=14     140

                                            1978.30           0.00

                                                                          V24  EL=14     140

                                            1981.60           0.00

                                                                          V24  EL=14     140

                                            1984.90           0.00

                                                                          V24  EL=14     140

                                            1988.20           0.00

                                                                          V24  EL=14     140

                                            1991.50           0.00

                                                                          V24  EL=14     140

                                            1994.70           0.00

                                                                          V24  EL=14     140

                                            1998.00           0.00

                                                                          V24  EL=14     140

                                            2001.30           0.00

                                                                          V24  EL=14     140

                                            2002.53           0.00

                                                                          V24  EL=13     140

                                            2004.60           0.00

                                                                          V24  EL=13     140

                                            2007.90           0.00

                                                                          V24  EL=13     140

                                            2011.20           0.00

                                                                          V24  EL=13     140

                                            2014.40           0.00

                                                                          V24  EL=13     140

                                            2017.70           0.00

                                                                          V24  EL=13     140

                                            2021.00           0.00

                                                                          V24  EL=13     140

                                            2024.30           0.00

                                                                          V24  EL=13     140

                                            2027.60           0.00

                                                                          V24  EL=13     140

                                            2030.80           0.00

                                                                          V24  EL=13     140

                                            2034.10           0.00

                                                                          V24  EL=13     140

                                            2037.40           0.00

                                                                          V24  EL=13     140

                                            2040.70           0.00

                                                                          V24  EL=13     140

                                            2044.00           0.00

                                                                          V24  EL=13     140

                                            2047.20           0.00

                                                                          V24  EL=13     140

                                            2050.50           0.00

                                                                          V24  EL=13     140

                                            2053.80           0.00

                                                                          V24  EL=13     140

                                            2055.92           0.00

                                                                          V24  EL=12     140

                                            2057.10           0.00

                                                                          V24  EL=12     140

                                            2060.40           0.00

                                                                          V24  EL=12     140

                                            2063.60           0.00

                                                                          V24  EL=12     140

                                            2064.33           0.00

                                                                          A17  EL=12      85

                                            2066.90           0.00

                                                                          A17  EL=12      85

                                            2070.20           0.00

                                                                          A17  EL=12      85

                                            2073.50           0.00

                                                                          A17  EL=12      85

                                            2076.80           0.00

                                                                          A17  EL=12      85

                                            2080.00           0.00

                                                                          A17  EL=12      85

                                            2081.14           0.00

                                                                          A17  EL=11      85

                                            2083.30           0.00

                                                                          A17  EL=11      85

                                            2086.60           0.00

                                                                          A17  EL=11      85

                                            2089.90           0.00

                                                                          A17  EL=11      85

                                            2093.20           0.00

                                                                          A17  EL=11      85

                                            2096.50           0.00

                                                                          A17  EL=11      85

                                            2107.14           0.00

                                                                          A17  EL=10      85

                                            2110.30           0.00


                                            2286.30           0.00

                                                                          A17  EL= 9      85

                                            2339.40           0.00


                                            2754.00           0.00

                                                                          A17  EL= 9      85

                                            2979.00           0.00

                                                                          A17  EL= 9      85

                                            3060.50           0.00

                                                                          A17  EL= 9      85

                                            3077.50           0.00

                                                                          A17  EL= 9      85

                                            3093.50           0.00

                                                                          A17  EL= 9      85

                                            3109.00           0.00

                                                                          A17  EL= 9      85

                                            3123.00           0.00

                                                                          A17  EL= 9      85

                                            3235.10           0.00



                                                  ZONE TERMINATED AT END OF TRANSECT



                                                  PART 7   POSTSCRIPT NOTES
PS START(380068.8812,4799887.1881)
PS END(380176.5982,4800958.9554)