 WAVE HEIGHT COMPUTATIONS FOR FLOOD INSURANCE STUDIES (WHAFIS VERSION 4.0G, 08_2007)
 Executed on: Thu Apr  2 11:05:19 2020
 Input file:  C:\FEMA-TransectAnalysis\LOMR-TransectAnalysis-Kennebunkport\3_whafis\whafis4\YK-99-1.dat                                       
 Output file: C:\FEMA-TransectAnalysis\LOMR-TransectAnalysis-Kennebunkport\3_whafis\whafis4\YK-99-1.out                                       



                                                              header                                                                
                                                     THIS IS A 100-YEAR CASE


                                       THE FOLLOWING NON-DEFAULT WIND SPEEDS ARE BEING USED
                                            WINDIF  56.14  WINDOF  56.14  WINDVH  60.00

                                                             PART1 INPUT

          IE      0.000     -1.356      1.000      1.000      9.401      3.261      7.945     56.140      0.011      0.000
          OF      1.000     -1.344      0.000      9.401      0.000      0.000      0.000      0.000      0.011      0.000
          OF      2.000     -1.333      0.000      9.401      0.000      0.000      0.000      0.000      0.012      0.000
          OF      3.000     -1.321      0.000      9.401      0.000      0.000      0.000      0.000      0.011      0.000
          OF      4.000     -1.310      0.000      9.401      0.000      0.000      0.000      0.000      0.011      0.000
          OF      5.000     -1.299      0.000      9.402      0.000      0.000      0.000      0.000      0.011      0.000
          OF      6.000     -1.287      0.000      9.402      0.000      0.000      0.000      0.000      0.011      0.000
          OF      7.000     -1.276      0.000      9.402      0.000      0.000      0.000      0.000      0.011      0.000
          OF      8.000     -1.264      0.000      9.402      0.000      0.000      0.000      0.000      0.011      0.000
          OF      9.000     -1.253      0.000      9.402      0.000      0.000      0.000      0.000      0.011      0.000
          OF     10.000     -1.242      0.000      9.402      0.000      0.000      0.000      0.000      0.011      0.000
          OF     11.000     -1.230      0.000      9.402      0.000      0.000      0.000      0.000      0.011      0.000
          OF     12.000     -1.219      0.000      9.402      0.000      0.000      0.000      0.000      0.011      0.000
          OF     13.000     -1.207      0.000      9.402      0.000      0.000      0.000      0.000      0.011      0.000
          OF     14.000     -1.196      0.000      9.402      0.000      0.000      0.000      0.000      0.012      0.000
          OF     15.000     -1.184      0.000      9.402      0.000      0.000      0.000      0.000      0.011      0.000
          OF     16.000     -1.173      0.000      9.402      0.000      0.000      0.000      0.000      0.011      0.000
          OF     17.000     -1.161      0.000      9.402      0.000      0.000      0.000      0.000      0.011      0.000
          OF     18.000     -1.150      0.000      9.402      0.000      0.000      0.000      0.000      0.011      0.000
          OF     19.000     -1.138      0.000      9.402      0.000      0.000      0.000      0.000      0.011      0.000
          OF     20.000     -1.127      0.000      9.402      0.000      0.000      0.000      0.000      0.011      0.000
          OF     21.000     -1.116      0.000      9.402      0.000      0.000      0.000      0.000      0.011      0.000
          OF     22.000     -1.104      0.000      9.402      0.000      0.000      0.000      0.000      0.011      0.000
          OF     23.000     -1.093      0.000      9.402      0.000      0.000      0.000      0.000      0.011      0.000
          OF     24.000     -1.081      0.000      9.402      0.000      0.000      0.000      0.000      0.011      0.000
          OF     25.000     -1.070      0.000      9.402      0.000      0.000      0.000      0.000      0.011      0.000
          OF     26.000     -1.059      0.000      9.402      0.000      0.000      0.000      0.000      0.012      0.000
          OF     27.000     -1.047      0.000      9.402      0.000      0.000      0.000      0.000      0.011      0.000
          OF     28.000     -1.036      0.000      9.403      0.000      0.000      0.000      0.000      0.011      0.000
          OF     29.000     -1.024      0.000      9.403      0.000      0.000      0.000      0.000      0.011      0.000
          OF     30.000     -1.013      0.000      9.403      0.000      0.000      0.000      0.000      0.011      0.000
          OF     31.000     -1.001      0.000      9.403      0.000      0.000      0.000      0.000      0.011      0.000
          OF     32.000     -0.990      0.000      9.403      0.000      0.000      0.000      0.000      0.011      0.000
          OF     33.000     -0.979      0.000      9.403      0.000      0.000      0.000      0.000      0.011      0.000
          OF     34.000     -0.967      0.000      9.403      0.000      0.000      0.000      0.000      0.011      0.000
          OF     35.000     -0.956      0.000      9.403      0.000      0.000      0.000      0.000      0.011      0.000
          OF     36.000     -0.944      0.000      9.403      0.000      0.000      0.000      0.000      0.012      0.000
          OF     37.000     -0.933      0.000      9.403      0.000      0.000      0.000      0.000      0.011      0.000
          OF     38.000     -0.921      0.000      9.403      0.000      0.000      0.000      0.000      0.011      0.000
          OF     39.000     -0.910      0.000      9.403      0.000      0.000      0.000      0.000      0.011      0.000
          OF     40.000     -0.898      0.000      9.403      0.000      0.000      0.000      0.000      0.011      0.000
          OF     41.000     -0.887      0.000      9.403      0.000      0.000      0.000      0.000      0.011      0.000
          OF     42.000     -0.876      0.000      9.403      0.000      0.000      0.000      0.000      0.011      0.000
          OF     43.000     -0.864      0.000      9.403      0.000      0.000      0.000      0.000      0.012      0.000
          OF     44.000     -0.853      0.000      9.403      0.000      0.000      0.000      0.000      0.011      0.000
          OF     45.000     -0.841      0.000      9.403      0.000      0.000      0.000      0.000      0.011      0.000
          OF     46.000     -0.830      0.000      9.403      0.000      0.000      0.000      0.000      0.011      0.000
          OF     47.000     -0.818      0.000      9.403      0.000      0.000      0.000      0.000      0.011      0.000
          OF     48.000     -0.807      0.000      9.403      0.000      0.000      0.000      0.000      0.011      0.000
          OF     49.000     -0.795      0.000      9.403      0.000      0.000      0.000      0.000      0.012      0.000
          OF     50.000     -0.784      0.000      9.403      0.000      0.000      0.000      0.000      0.011      0.000
          OF     51.000     -0.773      0.000      9.403      0.000      0.000      0.000      0.000      0.011      0.000
          OF     52.000     -0.761      0.000      9.403      0.000      0.000      0.000      0.000      0.011      0.000
          OF     53.000     -0.750      0.000      9.403      0.000      0.000      0.000      0.000      0.011      0.000
          OF     54.000     -0.738      0.000      9.403      0.000      0.000      0.000      0.000      0.011      0.000
          OF     55.000     -0.727      0.000      9.403      0.000      0.000      0.000      0.000      0.015      0.000
          OF     56.000     -0.708      0.000      9.403      0.000      0.000      0.000      0.000      0.034      0.000
          OF     57.000     -0.660      0.000      9.403      0.000      0.000      0.000      0.000      0.049      0.000
          OF     58.000     -0.610      0.000      9.403      0.000      0.000      0.000      0.000      0.049      0.000
          OF     59.000     -0.562      0.000      9.403      0.000      0.000      0.000      0.000      0.049      0.000
          OF     60.000     -0.513      0.000      9.403      0.000      0.000      0.000      0.000      0.049      0.000
          OF     61.000     -0.464      0.000      9.403      0.000      0.000      0.000      0.000      0.049      0.000
          OF     62.000     -0.415      0.000      9.403      0.000      0.000      0.000      0.000      0.049      0.000
          OF     63.000     -0.366      0.000      9.403      0.000      0.000      0.000      0.000      0.049      0.000
          OF     64.000     -0.317      0.000      9.403      0.000      0.000      0.000      0.000      0.049      0.000
          OF     65.000     -0.269      0.000      9.403      0.000      0.000      0.000      0.000      0.049      0.000
          OF     66.000     -0.220      0.000      9.403      0.000      0.000      0.000      0.000      0.049      0.000
          OF     67.000     -0.171      0.000      9.403      0.000      0.000      0.000      0.000      0.049      0.000
          OF     68.000     -0.122      0.000      9.403      0.000      0.000      0.000      0.000      0.049      0.000
          OF     69.000     -0.073      0.000      9.403      0.000      0.000      0.000      0.000      0.049      0.000
          OF     70.000     -0.024      0.000      9.403      0.000      0.000      0.000      0.000      0.142      0.000
          IF     73.500      0.568      0.000      9.403      0.000      0.000      0.000      0.000     -0.030      0.000
          OF     81.000     -0.351      0.000      9.403      0.000      0.000      0.000      0.000     -0.038      0.000
          OF     90.000     -0.056      0.000      9.403      0.000      0.000      0.000      0.000      0.027      0.000
          IF     99.000      0.141      0.000      9.403      0.000      0.000      0.000      0.000      0.046      0.000
          IF    106.500      0.699      0.000      9.403      0.000      0.000      0.000      0.000      0.063      0.000
          IF    113.500      1.060      0.000      9.403      0.000      0.000      0.000      0.000      0.145      0.000
          IF    121.000      2.799      0.000      9.403      0.000      0.000      0.000      0.000      0.231      0.000
          IF    128.000      4.406      0.000      9.403      0.000      0.000      0.000      0.000      0.209      0.000
          IF    134.500      5.620      0.000      9.403      0.000      0.000      0.000      0.000      0.301      0.000
          IF    141.100      8.352      0.000      9.509      0.000      0.000      0.000      0.000      0.262      0.000
          IF    144.400      8.218      0.000      9.629      0.000      0.000      0.000      0.000     -0.041      0.000
          IF    147.600      8.083      0.000      9.641      0.000      0.000      0.000      0.000     -0.030      0.000
          IF    150.900      8.025      0.000      9.637      0.000      0.000      0.000      0.000     -0.014      0.000
          IF    154.200      7.995      0.000      9.641      0.000      0.000      0.000      0.000     -0.009      0.000
          IF    157.500      7.964      0.000      9.645      0.000      0.000      0.000      0.000     -0.001      0.000
          IF    160.800      7.991      0.000      9.648      0.000      0.000      0.000      0.000      0.016      0.000
          IF    164.000      8.068      0.000      9.651      0.000      0.000      0.000      0.000      0.018      0.000
          IF    167.300      8.107      0.000      9.653      0.000      0.000      0.000      0.000      0.003      0.000
          IF    170.600      8.090      0.000      9.657      0.000      0.000      0.000      0.000      0.002      0.000
          IF    173.900      8.116      0.000      9.659      0.000      0.000      0.000      0.000      0.017      0.000
          IF    177.200      8.201      0.000      9.661      0.000      0.000      0.000      0.000      0.026      0.000
          IF    180.400      8.285      0.000      9.662      0.000      0.000      0.000      0.000      0.026      0.000
          IF    183.700      8.370      0.000      9.665      0.000      0.000      0.000      0.000      0.026      0.000
          IF    187.000      8.454      0.000      9.668      0.000      0.000      0.000      0.000      0.025      0.000
          IF    190.300      8.536      0.000      9.671      0.000      0.000      0.000      0.000      0.025      0.000
          IF    193.600      8.618      0.000      9.674      0.000      0.000      0.000      0.000      0.025      0.000
          IF    196.800      8.700      0.000      9.678      0.000      0.000      0.000      0.000     -0.002      0.000
          IF    200.100      8.608      0.000      9.683      0.000      0.000      0.000      0.000     -0.012      0.000
          IF    203.400      8.620      0.000      9.685      0.000      0.000      0.000      0.000      0.004      0.000
          IF    206.700      8.632      0.000      9.686      0.000      0.000      0.000      0.000      0.001      0.000
          IF    210.000      8.623      0.000      9.687      0.000      0.000      0.000      0.000     -0.007      0.000
          IF    213.300      8.589      0.000      9.689      0.000      0.000      0.000      0.000     -0.010      0.000
          IF    216.500      8.555      0.000      9.689      0.000      0.000      0.000      0.000      0.011      0.000
          IF    219.800      8.659      0.000      9.689      0.000      0.000      0.000      0.000      0.048      0.000
          IF    223.100      8.875      0.000      9.689      0.000      0.000      0.000      0.000      0.054      0.000
          IF    226.400      9.014      0.000      9.692      0.000      0.000      0.000      0.000      0.011      0.000
          IF    229.700      8.948      0.000      9.697      0.000      0.000      0.000      0.000      0.003      0.000
          IF    232.900      9.034      0.000      9.699      0.000      0.000      0.000      0.000      0.035      0.000
          IF    236.200      9.177      0.000      9.703      0.000      0.000      0.000      0.000     -0.024      0.000
          IF    239.500      8.878      0.000      9.708      0.000      0.000      0.000      0.000     -0.004      0.000
          IF    242.800      9.154      0.000      9.707      0.000      0.000      0.000      0.000      0.084      0.000
          IF    246.000      9.426      0.000      9.707      0.000      0.000      0.000      0.000      0.065      0.000
          IF    251.000      9.688      0.000      9.707      0.000      0.000      0.000      0.000      0.010      0.000
          IF    256.000      9.524      0.000      9.707      0.000      0.000      0.000      0.000      0.003      0.000
          IF    257.600      9.707      0.000      9.707      0.000      0.000      0.000      0.000      0.114      0.000
          AS    319.600      9.626      0.000      9.626      0.000      0.000      0.000      0.000     -0.025      0.000
          IF    320.000      9.616      0.000      9.626      0.000      0.000      0.000      0.000      0.000      0.000
          IF    320.200      9.626      0.000      9.626      0.000      0.000      0.000      0.000      0.050      0.000
          AS    334.300      9.626      0.000      9.626      0.000      0.000      0.000      0.000     -0.099      0.000
          IF    338.000      9.259      0.000      9.626      0.000      0.000      0.000      0.000     -0.004      0.000
          IF    351.000      9.557      0.000      9.626      0.000      0.000      0.000      0.000      0.012      0.000
          IF    358.000      9.491      0.000      9.626      0.000      0.000      0.000      0.000     -0.025      0.000
          IF    372.000      9.029      0.000      9.626      0.000      0.000      0.000      0.000     -0.073      0.000
          IF    388.500      7.257      0.000      9.626      0.000      0.000      0.000      0.000     -0.071      0.000
          IF    400.500      6.995      0.000      9.626      0.000      0.000      0.000      0.000      0.010      0.000
          IF    409.000      7.454      0.000      9.626      0.000      0.000      0.000      0.000      0.027      0.000
          IF    416.500      7.421      0.000      9.626      0.000      0.000      0.000      0.000     -0.011      0.000
          IF    423.500      7.290      0.000      9.626      0.000      0.000      0.000      0.000     -0.018      0.000
          IF    431.500      7.159      0.000      9.626      0.000      0.000      0.000      0.000      0.004      0.000
          IF    441.500      7.356      0.000      9.626      0.000      0.000      0.000      0.000     -0.008      0.000
          IF    448.000      7.028      0.000      9.625      0.000      0.000      0.000      0.000     -0.079      0.000
          IF    451.500      6.568      0.000      9.625      0.000      0.000      0.000      0.000     -0.017      0.000
          IF    459.500      6.831      0.000      9.625      0.000      0.000      0.000      0.000     -0.009      0.000
          IF    469.500      6.404      0.000      9.624      0.000      0.000      0.000      0.000     -0.019      0.000
          IF    480.500      6.437      0.000      9.624      0.000      0.000      0.000      0.000     -0.030      0.000
          IF    490.000      5.781      0.000      9.623      0.000      0.000      0.000      0.000     -0.032      0.000
          IF    499.000      5.846      0.000      9.623      0.000      0.000      0.000      0.000      0.006      0.000
          IF    511.500      5.912      0.000      9.622      0.000      0.000      0.000      0.000     -0.013      0.000
          IF    520.000      5.584      0.000      9.621      0.000      0.000      0.000      0.000      0.003      0.000
          IF    523.500      5.945      0.000      9.621      0.000      0.000      0.000      0.000     -0.010      0.000
          IF    533.000      5.453      0.000      9.621      0.000      0.000      0.000      0.000     -0.007      0.000
          IF    546.500      5.781      0.000      9.620      0.000      0.000      0.000      0.000      0.001      0.000
          IF    558.000      5.486      0.000      9.619      0.000      0.000      0.000      0.000     -0.038      0.000
          IF    565.500      5.059      0.000      9.619      0.000      0.000      0.000      0.000     -0.022      0.000
          IF    570.000      5.223      0.000      9.618      0.000      0.000      0.000      0.000      0.051      0.000
          IF    578.500      5.715      0.000      9.618      0.000      0.000      0.000      0.000      0.034      0.000
          IF    589.500      5.879      0.000      9.618      0.000      0.000      0.000      0.000     -0.015      0.000
          IF    596.000      5.453      0.000      9.617      0.000      0.000      0.000      0.000     -0.021      0.000
          IF    602.000      5.617      0.000      9.617      0.000      0.000      0.000      0.000      0.021      0.000
          IF    612.000      5.781      0.000      9.617      0.000      0.000      0.000      0.000     -0.014      0.000
          IF    623.000      5.321      0.000      9.616      0.000      0.000      0.000      0.000     -0.007      0.000
          IF    634.000      5.617      0.000      9.616      0.000      0.000      0.000      0.000      0.010      0.000
          IF    645.000      5.551      0.000      9.615      0.000      0.000      0.000      0.000     -0.034      0.000
          IF    655.000      4.895      0.000      9.615      0.000      0.000      0.000      0.000     -0.074      0.000
          IF    664.000      4.140      0.000      9.614      0.000      0.000      0.000      0.000     -0.052      0.000
          IF    675.000      3.845      0.000      9.613      0.000      0.000      0.000      0.000      0.033      0.000
          IF    689.000      4.961      0.000      9.613      0.000      0.000      0.000      0.000      0.055      0.000
          IF    700.000      5.223      0.000      9.612      0.000      0.000      0.000      0.000     -0.010      0.000
          IF    709.500      4.764      0.000      9.612      0.000      0.000      0.000      0.000     -0.016      0.000
          IF    716.000      4.961      0.000      9.611      0.000      0.000      0.000      0.000      0.024      0.000
          IF    719.000      4.993      0.000      9.611      0.000      0.000      0.000      0.000      0.007      0.000
          IF    725.500      5.026      0.000      9.611      0.000      0.000      0.000      0.000      0.014      0.000
          IF    735.500      5.223      0.000      9.610      0.000      0.000      0.000      0.000     -0.003      0.000
          IF    745.000      4.961      0.000      9.610      0.000      0.000      0.000      0.000      0.007      0.000
          IF    754.500      5.354      0.000      9.609      0.000      0.000      0.000      0.000      0.007      0.000
          IF    763.500      5.092      0.000      9.609      0.000      0.000      0.000      0.000     -0.034      0.000
          IF    771.000      4.797      0.000      9.609      0.000      0.000      0.000      0.000      0.010      0.000
          IF    777.000      5.223      0.000      9.609      0.000      0.000      0.000      0.000      0.048      0.000
          IF    786.000      5.518      0.000      9.608      0.000      0.000      0.000      0.000      0.016      0.000
          IF    800.000      5.584      0.000      9.608      0.000      0.000      0.000      0.000      0.019      0.000
          IF    816.000      6.076      0.000      9.608      0.000      0.000      0.000      0.000      0.041      0.000
          IF    835.500      7.028      0.000      9.607      0.000      0.000      0.000      0.000      0.036      0.000
          IF    850.500      7.323      0.000      9.607      0.000      0.000      0.000      0.000      0.030      0.000
          IF    862.500      7.848      0.000      9.607      0.000      0.000      0.000      0.000      0.034      0.000
          IF    879.500      8.307      0.000      9.606      0.000      0.000      0.000      0.000      0.033      0.000
          IF    890.000      8.766      0.000      9.606      0.000      0.000      0.000      0.000     -0.055      0.000
          IF    897.500      7.316      0.000      9.606      0.000      0.000      0.000      0.000     -0.057      0.000
          IF    921.500      6.962      0.000      9.605      0.000      0.000      0.000      0.000      0.032      0.000
          IF    944.500      8.796      0.000      9.605      0.000      0.000      0.000      0.000      0.029      0.000
          IF    964.500      8.205      0.000      9.605      0.000      0.000      0.000      0.000     -0.027      0.000
          IF    987.500      7.618      0.000      9.605      0.000      0.000      0.000      0.000     -0.008      0.000
          IF   1005.000      7.874      0.000      9.594      0.000      0.000      0.000      0.000     -0.019      0.000
          IF   1016.500      7.060      0.000      9.592      0.000      0.000      0.000      0.000     -0.017      0.000
          IF   1034.000      7.389      0.000      9.589      0.000      0.000      0.000      0.000      0.001      0.000
          IF   1041.500      7.093      0.000      9.587      0.000      0.000      0.000      0.000     -0.019      0.000
          IF   1047.500      7.126      0.000      9.586      0.000      0.000      0.000      0.000      0.023      0.000
          IF   1057.500      7.454      0.000      9.584      0.000      0.000      0.000      0.000      0.037      0.000
          IF   1068.000      7.881      0.000      9.583      0.000      0.000      0.000      0.000      0.063      0.000
          IF   1082.000      8.996      0.000      9.583      0.000      0.000      0.000      0.000      0.037      0.000
          IF   1092.000      8.760      0.000      9.583      0.000      0.000      0.000      0.000     -0.027      0.000
          IF   1093.000      8.694      0.000      9.583      0.000      0.000      0.000      0.000      0.039      0.000
          IF   1100.500      9.094      0.000      9.583      0.000      0.000      0.000      0.000      0.059      0.000
          IF   1108.000      9.583      0.000      9.583      0.000      0.000      0.000      0.000      0.065      0.000
          AS   1173.300      9.626      0.000      9.626      0.000      0.000      0.000      0.000     -0.198      0.000
          IF   1173.500      9.587      0.000      9.626      0.000      0.000      0.000      0.000     -0.059      0.000
          IF   1179.500      9.259      0.000      9.626      0.000      0.000      0.000      0.000     -0.002      0.000
          IF   1188.500      9.554      0.000      9.626      0.000      0.000      0.000      0.000      0.034      0.000
          IF   1190.300      9.626      0.000      9.626      0.000      0.000      0.000      0.000      0.040      0.000
          AS   1226.300      9.626      0.000      9.626      0.000      0.000      0.000      0.000     -0.034      0.000
          IF   1226.500      9.619      0.000      9.626      0.000      0.000      0.000      0.000     -0.034      0.000
          ET      0.000      0.000      0.000      0.000      0.000      0.000      0.000      0.000      0.000      0.000
1


            END        END      FETCH SURGE ELEV SURGE ELEV    INITIAL    INITIAL                BOTTOM    AVERAGE
        STATION  ELEVATION     LENGTH    10-YEAR   100-YEAR WAVE HEIGHT  W. PERIOD                SLOPE    A-ZONES
  IE      0.000     -1.356      1.000      1.000      9.401      3.261      7.945     56.140      0.011      0.000


            END        END  NEW SURGE  NEW SURGE                                                 BOTTOM    AVERAGE
        STATION  ELEVATION    10-YEAR   100-YEAR                                                  SLOPE    A-ZONES
  OF      1.000     -1.344      0.000      9.401      0.000      0.000      0.000      0.000      0.011      0.000


            END        END  NEW SURGE  NEW SURGE                                                 BOTTOM    AVERAGE
        STATION  ELEVATION    10-YEAR   100-YEAR                                                  SLOPE    A-ZONES
  OF      2.000     -1.333      0.000      9.401      0.000      0.000      0.000      0.000      0.012      0.000


            END        END  NEW SURGE  NEW SURGE                                                 BOTTOM    AVERAGE
        STATION  ELEVATION    10-YEAR   100-YEAR                                                  SLOPE    A-ZONES
  OF      3.000     -1.321      0.000      9.401      0.000      0.000      0.000      0.000      0.011      0.000


            END        END  NEW SURGE  NEW SURGE                                                 BOTTOM    AVERAGE
        STATION  ELEVATION    10-YEAR   100-YEAR                                                  SLOPE    A-ZONES
  OF      4.000     -1.310      0.000      9.401      0.000      0.000      0.000      0.000      0.011      0.000


            END        END  NEW SURGE  NEW SURGE                                                 BOTTOM    AVERAGE
        STATION  ELEVATION    10-YEAR   100-YEAR                                                  SLOPE    A-ZONES
  OF      5.000     -1.299      0.000      9.402      0.000      0.000      0.000      0.000      0.011      0.000


            END        END  NEW SURGE  NEW SURGE                                                 BOTTOM    AVERAGE
        STATION  ELEVATION    10-YEAR   100-YEAR                                                  SLOPE    A-ZONES
  OF      6.000     -1.287      0.000      9.402      0.000      0.000      0.000      0.000      0.011      0.000


            END        END  NEW SURGE  NEW SURGE                                                 BOTTOM    AVERAGE
        STATION  ELEVATION    10-YEAR   100-YEAR                                                  SLOPE    A-ZONES
  OF      7.000     -1.276      0.000      9.402      0.000      0.000      0.000      0.000      0.011      0.000


            END        END  NEW SURGE  NEW SURGE                                                 BOTTOM    AVERAGE
        STATION  ELEVATION    10-YEAR   100-YEAR                                                  SLOPE    A-ZONES
  OF      8.000     -1.264      0.000      9.402      0.000      0.000      0.000      0.000      0.011      0.000


            END        END  NEW SURGE  NEW SURGE                                                 BOTTOM    AVERAGE
        STATION  ELEVATION    10-YEAR   100-YEAR                                                  SLOPE    A-ZONES
  OF      9.000     -1.253      0.000      9.402      0.000      0.000      0.000      0.000      0.011      0.000


            END        END  NEW SURGE  NEW SURGE                                                 BOTTOM    AVERAGE
        STATION  ELEVATION    10-YEAR   100-YEAR                                                  SLOPE    A-ZONES
  OF     10.000     -1.242      0.000      9.402      0.000      0.000      0.000      0.000      0.011      0.000


            END        END  NEW SURGE  NEW SURGE                                                 BOTTOM    AVERAGE
        STATION  ELEVATION    10-YEAR   100-YEAR                                                  SLOPE    A-ZONES
  OF     11.000     -1.230      0.000      9.402      0.000      0.000      0.000      0.000      0.011      0.000


            END        END  NEW SURGE  NEW SURGE                                                 BOTTOM    AVERAGE
        STATION  ELEVATION    10-YEAR   100-YEAR                                                  SLOPE    A-ZONES
  OF     12.000     -1.219      0.000      9.402      0.000      0.000      0.000      0.000      0.011      0.000


            END        END  NEW SURGE  NEW SURGE                                                 BOTTOM    AVERAGE
        STATION  ELEVATION    10-YEAR   100-YEAR                                                  SLOPE    A-ZONES
  OF     13.000     -1.207      0.000      9.402      0.000      0.000      0.000      0.000      0.011      0.000


            END        END  NEW SURGE  NEW SURGE                                                 BOTTOM    AVERAGE
        STATION  ELEVATION    10-YEAR   100-YEAR                                                  SLOPE    A-ZONES
  OF     14.000     -1.196      0.000      9.402      0.000      0.000      0.000      0.000      0.012      0.000


            END        END  NEW SURGE  NEW SURGE                                                 BOTTOM    AVERAGE
        STATION  ELEVATION    10-YEAR   100-YEAR                                                  SLOPE    A-ZONES
  OF     15.000     -1.184      0.000      9.402      0.000      0.000      0.000      0.000      0.011      0.000


            END        END  NEW SURGE  NEW SURGE                                                 BOTTOM    AVERAGE
        STATION  ELEVATION    10-YEAR   100-YEAR                                                  SLOPE    A-ZONES
  OF     16.000     -1.173      0.000      9.402      0.000      0.000      0.000      0.000      0.011      0.000


            END        END  NEW SURGE  NEW SURGE                                                 BOTTOM    AVERAGE
        STATION  ELEVATION    10-YEAR   100-YEAR                                                  SLOPE    A-ZONES
  OF     17.000     -1.161      0.000      9.402      0.000      0.000      0.000      0.000      0.011      0.000


            END        END  NEW SURGE  NEW SURGE                                                 BOTTOM    AVERAGE
        STATION  ELEVATION    10-YEAR   100-YEAR                                                  SLOPE    A-ZONES
  OF     18.000     -1.150      0.000      9.402      0.000      0.000      0.000      0.000      0.011      0.000


            END        END  NEW SURGE  NEW SURGE                                                 BOTTOM    AVERAGE
        STATION  ELEVATION    10-YEAR   100-YEAR                                                  SLOPE    A-ZONES
  OF     19.000     -1.138      0.000      9.402      0.000      0.000      0.000      0.000      0.011      0.000


            END        END  NEW SURGE  NEW SURGE                                                 BOTTOM    AVERAGE
        STATION  ELEVATION    10-YEAR   100-YEAR                                                  SLOPE    A-ZONES
  OF     20.000     -1.127      0.000      9.402      0.000      0.000      0.000      0.000      0.011      0.000


            END        END  NEW SURGE  NEW SURGE                                                 BOTTOM    AVERAGE
        STATION  ELEVATION    10-YEAR   100-YEAR                                                  SLOPE    A-ZONES
  OF     21.000     -1.116      0.000      9.402      0.000      0.000      0.000      0.000      0.011      0.000


            END        END  NEW SURGE  NEW SURGE                                                 BOTTOM    AVERAGE
        STATION  ELEVATION    10-YEAR   100-YEAR                                                  SLOPE    A-ZONES
  OF     22.000     -1.104      0.000      9.402      0.000      0.000      0.000      0.000      0.011      0.000


            END        END  NEW SURGE  NEW SURGE                                                 BOTTOM    AVERAGE
        STATION  ELEVATION    10-YEAR   100-YEAR                                                  SLOPE    A-ZONES
  OF     23.000     -1.093      0.000      9.402      0.000      0.000      0.000      0.000      0.011      0.000


            END        END  NEW SURGE  NEW SURGE                                                 BOTTOM    AVERAGE
        STATION  ELEVATION    10-YEAR   100-YEAR                                                  SLOPE    A-ZONES
  OF     24.000     -1.081      0.000      9.402      0.000      0.000      0.000      0.000      0.011      0.000


            END        END  NEW SURGE  NEW SURGE                                                 BOTTOM    AVERAGE
        STATION  ELEVATION    10-YEAR   100-YEAR                                                  SLOPE    A-ZONES
  OF     25.000     -1.070      0.000      9.402      0.000      0.000      0.000      0.000      0.011      0.000


            END        END  NEW SURGE  NEW SURGE                                                 BOTTOM    AVERAGE
        STATION  ELEVATION    10-YEAR   100-YEAR                                                  SLOPE    A-ZONES
  OF     26.000     -1.059      0.000      9.402      0.000      0.000      0.000      0.000      0.012      0.000


            END        END  NEW SURGE  NEW SURGE                                                 BOTTOM    AVERAGE
        STATION  ELEVATION    10-YEAR   100-YEAR                                                  SLOPE    A-ZONES
  OF     27.000     -1.047      0.000      9.402      0.000      0.000      0.000      0.000      0.011      0.000


            END        END  NEW SURGE  NEW SURGE                                                 BOTTOM    AVERAGE
        STATION  ELEVATION    10-YEAR   100-YEAR                                                  SLOPE    A-ZONES
  OF     28.000     -1.036      0.000      9.403      0.000      0.000      0.000      0.000      0.011      0.000


            END        END  NEW SURGE  NEW SURGE                                                 BOTTOM    AVERAGE
        STATION  ELEVATION    10-YEAR   100-YEAR                                                  SLOPE    A-ZONES
  OF     29.000     -1.024      0.000      9.403      0.000      0.000      0.000      0.000      0.011      0.000


            END        END  NEW SURGE  NEW SURGE                                                 BOTTOM    AVERAGE
        STATION  ELEVATION    10-YEAR   100-YEAR                                                  SLOPE    A-ZONES
  OF     30.000     -1.013      0.000      9.403      0.000      0.000      0.000      0.000      0.011      0.000


            END        END  NEW SURGE  NEW SURGE                                                 BOTTOM    AVERAGE
        STATION  ELEVATION    10-YEAR   100-YEAR                                                  SLOPE    A-ZONES
  OF     31.000     -1.001      0.000      9.403      0.000      0.000      0.000      0.000      0.011      0.000


            END        END  NEW SURGE  NEW SURGE                                                 BOTTOM    AVERAGE
        STATION  ELEVATION    10-YEAR   100-YEAR                                                  SLOPE    A-ZONES
  OF     32.000     -0.990      0.000      9.403      0.000      0.000      0.000      0.000      0.011      0.000


            END        END  NEW SURGE  NEW SURGE                                                 BOTTOM    AVERAGE
        STATION  ELEVATION    10-YEAR   100-YEAR                                                  SLOPE    A-ZONES
  OF     33.000     -0.979      0.000      9.403      0.000      0.000      0.000      0.000      0.011      0.000


            END        END  NEW SURGE  NEW SURGE                                                 BOTTOM    AVERAGE
        STATION  ELEVATION    10-YEAR   100-YEAR                                                  SLOPE    A-ZONES
  OF     34.000     -0.967      0.000      9.403      0.000      0.000      0.000      0.000      0.011      0.000


            END        END  NEW SURGE  NEW SURGE                                                 BOTTOM    AVERAGE
        STATION  ELEVATION    10-YEAR   100-YEAR                                                  SLOPE    A-ZONES
  OF     35.000     -0.956      0.000      9.403      0.000      0.000      0.000      0.000      0.011      0.000


            END        END  NEW SURGE  NEW SURGE                                                 BOTTOM    AVERAGE
        STATION  ELEVATION    10-YEAR   100-YEAR                                                  SLOPE    A-ZONES
  OF     36.000     -0.944      0.000      9.403      0.000      0.000      0.000      0.000      0.012      0.000


            END        END  NEW SURGE  NEW SURGE                                                 BOTTOM    AVERAGE
        STATION  ELEVATION    10-YEAR   100-YEAR                                                  SLOPE    A-ZONES
  OF     37.000     -0.933      0.000      9.403      0.000      0.000      0.000      0.000      0.011      0.000


            END        END  NEW SURGE  NEW SURGE                                                 BOTTOM    AVERAGE
        STATION  ELEVATION    10-YEAR   100-YEAR                                                  SLOPE    A-ZONES
  OF     38.000     -0.921      0.000      9.403      0.000      0.000      0.000      0.000      0.011      0.000


            END        END  NEW SURGE  NEW SURGE                                                 BOTTOM    AVERAGE
        STATION  ELEVATION    10-YEAR   100-YEAR                                                  SLOPE    A-ZONES
  OF     39.000     -0.910      0.000      9.403      0.000      0.000      0.000      0.000      0.011      0.000


            END        END  NEW SURGE  NEW SURGE                                                 BOTTOM    AVERAGE
        STATION  ELEVATION    10-YEAR   100-YEAR                                                  SLOPE    A-ZONES
  OF     40.000     -0.898      0.000      9.403      0.000      0.000      0.000      0.000      0.011      0.000


            END        END  NEW SURGE  NEW SURGE                                                 BOTTOM    AVERAGE
        STATION  ELEVATION    10-YEAR   100-YEAR                                                  SLOPE    A-ZONES
  OF     41.000     -0.887      0.000      9.403      0.000      0.000      0.000      0.000      0.011      0.000


            END        END  NEW SURGE  NEW SURGE                                                 BOTTOM    AVERAGE
        STATION  ELEVATION    10-YEAR   100-YEAR                                                  SLOPE    A-ZONES
  OF     42.000     -0.876      0.000      9.403      0.000      0.000      0.000      0.000      0.011      0.000


            END        END  NEW SURGE  NEW SURGE                                                 BOTTOM    AVERAGE
        STATION  ELEVATION    10-YEAR   100-YEAR                                                  SLOPE    A-ZONES
  OF     43.000     -0.864      0.000      9.403      0.000      0.000      0.000      0.000      0.012      0.000


            END        END  NEW SURGE  NEW SURGE                                                 BOTTOM    AVERAGE
        STATION  ELEVATION    10-YEAR   100-YEAR                                                  SLOPE    A-ZONES
  OF     44.000     -0.853      0.000      9.403      0.000      0.000      0.000      0.000      0.011      0.000


            END        END  NEW SURGE  NEW SURGE                                                 BOTTOM    AVERAGE
        STATION  ELEVATION    10-YEAR   100-YEAR                                                  SLOPE    A-ZONES
  OF     45.000     -0.841      0.000      9.403      0.000      0.000      0.000      0.000      0.011      0.000


            END        END  NEW SURGE  NEW SURGE                                                 BOTTOM    AVERAGE
        STATION  ELEVATION    10-YEAR   100-YEAR                                                  SLOPE    A-ZONES
  OF     46.000     -0.830      0.000      9.403      0.000      0.000      0.000      0.000      0.011      0.000


            END        END  NEW SURGE  NEW SURGE                                                 BOTTOM    AVERAGE
        STATION  ELEVATION    10-YEAR   100-YEAR                                                  SLOPE    A-ZONES
  OF     47.000     -0.818      0.000      9.403      0.000      0.000      0.000      0.000      0.011      0.000


            END        END  NEW SURGE  NEW SURGE                                                 BOTTOM    AVERAGE
        STATION  ELEVATION    10-YEAR   100-YEAR                                                  SLOPE    A-ZONES
  OF     48.000     -0.807      0.000      9.403      0.000      0.000      0.000      0.000      0.011      0.000


            END        END  NEW SURGE  NEW SURGE                                                 BOTTOM    AVERAGE
        STATION  ELEVATION    10-YEAR   100-YEAR                                                  SLOPE    A-ZONES
  OF     49.000     -0.795      0.000      9.403      0.000      0.000      0.000      0.000      0.012      0.000


            END        END  NEW SURGE  NEW SURGE                                                 BOTTOM    AVERAGE
        STATION  ELEVATION    10-YEAR   100-YEAR                                                  SLOPE    A-ZONES
  OF     50.000     -0.784      0.000      9.403      0.000      0.000      0.000      0.000      0.011      0.000


            END        END  NEW SURGE  NEW SURGE                                                 BOTTOM    AVERAGE
        STATION  ELEVATION    10-YEAR   100-YEAR                                                  SLOPE    A-ZONES
  OF     51.000     -0.773      0.000      9.403      0.000      0.000      0.000      0.000      0.011      0.000


            END        END  NEW SURGE  NEW SURGE                                                 BOTTOM    AVERAGE
        STATION  ELEVATION    10-YEAR   100-YEAR                                                  SLOPE    A-ZONES
  OF     52.000     -0.761      0.000      9.403      0.000      0.000      0.000      0.000      0.011      0.000


            END        END  NEW SURGE  NEW SURGE                                                 BOTTOM    AVERAGE
        STATION  ELEVATION    10-YEAR   100-YEAR                                                  SLOPE    A-ZONES
  OF     53.000     -0.750      0.000      9.403      0.000      0.000      0.000      0.000      0.011      0.000


            END        END  NEW SURGE  NEW SURGE                                                 BOTTOM    AVERAGE
        STATION  ELEVATION    10-YEAR   100-YEAR                                                  SLOPE    A-ZONES
  OF     54.000     -0.738      0.000      9.403      0.000      0.000      0.000      0.000      0.011      0.000


            END        END  NEW SURGE  NEW SURGE                                                 BOTTOM    AVERAGE
        STATION  ELEVATION    10-YEAR   100-YEAR                                                  SLOPE    A-ZONES
  OF     55.000     -0.727      0.000      9.403      0.000      0.000      0.000      0.000      0.015      0.000


            END        END  NEW SURGE  NEW SURGE                                                 BOTTOM    AVERAGE
        STATION  ELEVATION    10-YEAR   100-YEAR                                                  SLOPE    A-ZONES
  OF     56.000     -0.708      0.000      9.403      0.000      0.000      0.000      0.000      0.034      0.000


            END        END  NEW SURGE  NEW SURGE                                                 BOTTOM    AVERAGE
        STATION  ELEVATION    10-YEAR   100-YEAR                                                  SLOPE    A-ZONES
  OF     57.000     -0.660      0.000      9.403      0.000      0.000      0.000      0.000      0.049      0.000


            END        END  NEW SURGE  NEW SURGE                                                 BOTTOM    AVERAGE
        STATION  ELEVATION    10-YEAR   100-YEAR                                                  SLOPE    A-ZONES
  OF     58.000     -0.610      0.000      9.403      0.000      0.000      0.000      0.000      0.049      0.000


            END        END  NEW SURGE  NEW SURGE                                                 BOTTOM    AVERAGE
        STATION  ELEVATION    10-YEAR   100-YEAR                                                  SLOPE    A-ZONES
  OF     59.000     -0.562      0.000      9.403      0.000      0.000      0.000      0.000      0.049      0.000


            END        END  NEW SURGE  NEW SURGE                                                 BOTTOM    AVERAGE
        STATION  ELEVATION    10-YEAR   100-YEAR                                                  SLOPE    A-ZONES
  OF     60.000     -0.513      0.000      9.403      0.000      0.000      0.000      0.000      0.049      0.000


            END        END  NEW SURGE  NEW SURGE                                                 BOTTOM    AVERAGE
        STATION  ELEVATION    10-YEAR   100-YEAR                                                  SLOPE    A-ZONES
  OF     61.000     -0.464      0.000      9.403      0.000      0.000      0.000      0.000      0.049      0.000


            END        END  NEW SURGE  NEW SURGE                                                 BOTTOM    AVERAGE
        STATION  ELEVATION    10-YEAR   100-YEAR                                                  SLOPE    A-ZONES
  OF     62.000     -0.415      0.000      9.403      0.000      0.000      0.000      0.000      0.049      0.000


            END        END  NEW SURGE  NEW SURGE                                                 BOTTOM    AVERAGE
        STATION  ELEVATION    10-YEAR   100-YEAR                                                  SLOPE    A-ZONES
  OF     63.000     -0.366      0.000      9.403      0.000      0.000      0.000      0.000      0.049      0.000


            END        END  NEW SURGE  NEW SURGE                                                 BOTTOM    AVERAGE
        STATION  ELEVATION    10-YEAR   100-YEAR                                                  SLOPE    A-ZONES
  OF     64.000     -0.317      0.000      9.403      0.000      0.000      0.000      0.000      0.049      0.000


            END        END  NEW SURGE  NEW SURGE                                                 BOTTOM    AVERAGE
        STATION  ELEVATION    10-YEAR   100-YEAR                                                  SLOPE    A-ZONES
  OF     65.000     -0.269      0.000      9.403      0.000      0.000      0.000      0.000      0.049      0.000


            END        END  NEW SURGE  NEW SURGE                                                 BOTTOM    AVERAGE
        STATION  ELEVATION    10-YEAR   100-YEAR                                                  SLOPE    A-ZONES
  OF     66.000     -0.220      0.000      9.403      0.000      0.000      0.000      0.000      0.049      0.000


            END        END  NEW SURGE  NEW SURGE                                                 BOTTOM    AVERAGE
        STATION  ELEVATION    10-YEAR   100-YEAR                                                  SLOPE    A-ZONES
  OF     67.000     -0.171      0.000      9.403      0.000      0.000      0.000      0.000      0.049      0.000


            END        END  NEW SURGE  NEW SURGE                                                 BOTTOM    AVERAGE
        STATION  ELEVATION    10-YEAR   100-YEAR                                                  SLOPE    A-ZONES
  OF     68.000     -0.122      0.000      9.403      0.000      0.000      0.000      0.000      0.049      0.000


            END        END  NEW SURGE  NEW SURGE                                                 BOTTOM    AVERAGE
        STATION  ELEVATION    10-YEAR   100-YEAR                                                  SLOPE    A-ZONES
  OF     69.000     -0.073      0.000      9.403      0.000      0.000      0.000      0.000      0.049      0.000


            END        END  NEW SURGE  NEW SURGE                                                 BOTTOM    AVERAGE
        STATION  ELEVATION    10-YEAR   100-YEAR                                                  SLOPE    A-ZONES
  OF     70.000     -0.024      0.000      9.403      0.000      0.000      0.000      0.000      0.142      0.000


            END        END  NEW SURGE  NEW SURGE                                                 BOTTOM    AVERAGE
        STATION  ELEVATION    10-YEAR   100-YEAR                                                  SLOPE    A-ZONES
  IF     73.500      0.568      0.000      9.403      0.000      0.000      0.000      0.000     -0.030      0.000


            END        END  NEW SURGE  NEW SURGE                                                 BOTTOM    AVERAGE
        STATION  ELEVATION    10-YEAR   100-YEAR                                                  SLOPE    A-ZONES
  OF     81.000     -0.351      0.000      9.403      0.000      0.000      0.000      0.000     -0.038      0.000


            END        END  NEW SURGE  NEW SURGE                                                 BOTTOM    AVERAGE
        STATION  ELEVATION    10-YEAR   100-YEAR                                                  SLOPE    A-ZONES
  OF     90.000     -0.056      0.000      9.403      0.000      0.000      0.000      0.000      0.027      0.000


            END        END  NEW SURGE  NEW SURGE                                                 BOTTOM    AVERAGE
        STATION  ELEVATION    10-YEAR   100-YEAR                                                  SLOPE    A-ZONES
  IF     99.000      0.141      0.000      9.403      0.000      0.000      0.000      0.000      0.046      0.000


            END        END  NEW SURGE  NEW SURGE                                                 BOTTOM    AVERAGE
        STATION  ELEVATION    10-YEAR   100-YEAR                                                  SLOPE    A-ZONES
  IF    106.500      0.699      0.000      9.403      0.000      0.000      0.000      0.000      0.063      0.000


            END        END  NEW SURGE  NEW SURGE                                                 BOTTOM    AVERAGE
        STATION  ELEVATION    10-YEAR   100-YEAR                                                  SLOPE    A-ZONES
  IF    113.500      1.060      0.000      9.403      0.000      0.000      0.000      0.000      0.145      0.000


            END        END  NEW SURGE  NEW SURGE                                                 BOTTOM    AVERAGE
        STATION  ELEVATION    10-YEAR   100-YEAR                                                  SLOPE    A-ZONES
  IF    121.000      2.799      0.000      9.403      0.000      0.000      0.000      0.000      0.231      0.000


            END        END  NEW SURGE  NEW SURGE                                                 BOTTOM    AVERAGE
        STATION  ELEVATION    10-YEAR   100-YEAR                                                  SLOPE    A-ZONES
  IF    128.000      4.406      0.000      9.403      0.000      0.000      0.000      0.000      0.209      0.000


            END        END  NEW SURGE  NEW SURGE                                                 BOTTOM    AVERAGE
        STATION  ELEVATION    10-YEAR   100-YEAR                                                  SLOPE    A-ZONES
  IF    134.500      5.620      0.000      9.403      0.000      0.000      0.000      0.000      0.301      0.000


            END        END  NEW SURGE  NEW SURGE                                                 BOTTOM    AVERAGE
        STATION  ELEVATION    10-YEAR   100-YEAR                                                  SLOPE    A-ZONES
  IF    141.100      8.352      0.000      9.509      0.000      0.000      0.000      0.000      0.262      0.000


            END        END  NEW SURGE  NEW SURGE                                                 BOTTOM    AVERAGE
        STATION  ELEVATION    10-YEAR   100-YEAR                                                  SLOPE    A-ZONES
  IF    144.400      8.218      0.000      9.629      0.000      0.000      0.000      0.000     -0.041      0.000


            END        END  NEW SURGE  NEW SURGE                                                 BOTTOM    AVERAGE
        STATION  ELEVATION    10-YEAR   100-YEAR                                                  SLOPE    A-ZONES
  IF    147.600      8.083      0.000      9.641      0.000      0.000      0.000      0.000     -0.030      0.000


            END        END  NEW SURGE  NEW SURGE                                                 BOTTOM    AVERAGE
        STATION  ELEVATION    10-YEAR   100-YEAR                                                  SLOPE    A-ZONES
  IF    150.900      8.025      0.000      9.637      0.000      0.000      0.000      0.000     -0.014      0.000


            END        END  NEW SURGE  NEW SURGE                                                 BOTTOM    AVERAGE
        STATION  ELEVATION    10-YEAR   100-YEAR                                                  SLOPE    A-ZONES
  IF    154.200      7.995      0.000      9.641      0.000      0.000      0.000      0.000     -0.009      0.000


            END        END  NEW SURGE  NEW SURGE                                                 BOTTOM    AVERAGE
        STATION  ELEVATION    10-YEAR   100-YEAR                                                  SLOPE    A-ZONES
  IF    157.500      7.964      0.000      9.645      0.000      0.000      0.000      0.000     -0.001      0.000


            END        END  NEW SURGE  NEW SURGE                                                 BOTTOM    AVERAGE
        STATION  ELEVATION    10-YEAR   100-YEAR                                                  SLOPE    A-ZONES
  IF    160.800      7.991      0.000      9.648      0.000      0.000      0.000      0.000      0.016      0.000


            END        END  NEW SURGE  NEW SURGE                                                 BOTTOM    AVERAGE
        STATION  ELEVATION    10-YEAR   100-YEAR                                                  SLOPE    A-ZONES
  IF    164.000      8.068      0.000      9.651      0.000      0.000      0.000      0.000      0.018      0.000


            END        END  NEW SURGE  NEW SURGE                                                 BOTTOM    AVERAGE
        STATION  ELEVATION    10-YEAR   100-YEAR                                                  SLOPE    A-ZONES
  IF    167.300      8.107      0.000      9.653      0.000      0.000      0.000      0.000      0.003      0.000


            END        END  NEW SURGE  NEW SURGE                                                 BOTTOM    AVERAGE
        STATION  ELEVATION    10-YEAR   100-YEAR                                                  SLOPE    A-ZONES
  IF    170.600      8.090      0.000      9.657      0.000      0.000      0.000      0.000      0.002      0.000


            END        END  NEW SURGE  NEW SURGE                                                 BOTTOM    AVERAGE
        STATION  ELEVATION    10-YEAR   100-YEAR                                                  SLOPE    A-ZONES
  IF    173.900      8.116      0.000      9.659      0.000      0.000      0.000      0.000      0.017      0.000


            END        END  NEW SURGE  NEW SURGE                                                 BOTTOM    AVERAGE
        STATION  ELEVATION    10-YEAR   100-YEAR                                                  SLOPE    A-ZONES
  IF    177.200      8.201      0.000      9.661      0.000      0.000      0.000      0.000      0.026      0.000


            END        END  NEW SURGE  NEW SURGE                                                 BOTTOM    AVERAGE
        STATION  ELEVATION    10-YEAR   100-YEAR                                                  SLOPE    A-ZONES
  IF    180.400      8.285      0.000      9.662      0.000      0.000      0.000      0.000      0.026      0.000


            END        END  NEW SURGE  NEW SURGE                                                 BOTTOM    AVERAGE
        STATION  ELEVATION    10-YEAR   100-YEAR                                                  SLOPE    A-ZONES
  IF    183.700      8.370      0.000      9.665      0.000      0.000      0.000      0.000      0.026      0.000


            END        END  NEW SURGE  NEW SURGE                                                 BOTTOM    AVERAGE
        STATION  ELEVATION    10-YEAR   100-YEAR                                                  SLOPE    A-ZONES
  IF    187.000      8.454      0.000      9.668      0.000      0.000      0.000      0.000      0.025      0.000


            END        END  NEW SURGE  NEW SURGE                                                 BOTTOM    AVERAGE
        STATION  ELEVATION    10-YEAR   100-YEAR                                                  SLOPE    A-ZONES
  IF    190.300      8.536      0.000      9.671      0.000      0.000      0.000      0.000      0.025      0.000


            END        END  NEW SURGE  NEW SURGE                                                 BOTTOM    AVERAGE
        STATION  ELEVATION    10-YEAR   100-YEAR                                                  SLOPE    A-ZONES
  IF    193.600      8.618      0.000      9.674      0.000      0.000      0.000      0.000      0.025      0.000


            END        END  NEW SURGE  NEW SURGE                                                 BOTTOM    AVERAGE
        STATION  ELEVATION    10-YEAR   100-YEAR                                                  SLOPE    A-ZONES
  IF    196.800      8.700      0.000      9.678      0.000      0.000      0.000      0.000     -0.002      0.000


            END        END  NEW SURGE  NEW SURGE                                                 BOTTOM    AVERAGE
        STATION  ELEVATION    10-YEAR   100-YEAR                                                  SLOPE    A-ZONES
  IF    200.100      8.608      0.000      9.683      0.000      0.000      0.000      0.000     -0.012      0.000


            END        END  NEW SURGE  NEW SURGE                                                 BOTTOM    AVERAGE
        STATION  ELEVATION    10-YEAR   100-YEAR                                                  SLOPE    A-ZONES
  IF    203.400      8.620      0.000      9.685      0.000      0.000      0.000      0.000      0.004      0.000


            END        END  NEW SURGE  NEW SURGE                                                 BOTTOM    AVERAGE
        STATION  ELEVATION    10-YEAR   100-YEAR                                                  SLOPE    A-ZONES
  IF    206.700      8.632      0.000      9.686      0.000      0.000      0.000      0.000      0.001      0.000


            END        END  NEW SURGE  NEW SURGE                                                 BOTTOM    AVERAGE
        STATION  ELEVATION    10-YEAR   100-YEAR                                                  SLOPE    A-ZONES
  IF    210.000      8.623      0.000      9.687      0.000      0.000      0.000      0.000     -0.007      0.000


            END        END  NEW SURGE  NEW SURGE                                                 BOTTOM    AVERAGE
        STATION  ELEVATION    10-YEAR   100-YEAR                                                  SLOPE    A-ZONES
  IF    213.300      8.589      0.000      9.689      0.000      0.000      0.000      0.000     -0.010      0.000


            END        END  NEW SURGE  NEW SURGE                                                 BOTTOM    AVERAGE
        STATION  ELEVATION    10-YEAR   100-YEAR                                                  SLOPE    A-ZONES
  IF    216.500      8.555      0.000      9.689      0.000      0.000      0.000      0.000      0.011      0.000


            END        END  NEW SURGE  NEW SURGE                                                 BOTTOM    AVERAGE
        STATION  ELEVATION    10-YEAR   100-YEAR                                                  SLOPE    A-ZONES
  IF    219.800      8.659      0.000      9.689      0.000      0.000      0.000      0.000      0.048      0.000


            END        END  NEW SURGE  NEW SURGE                                                 BOTTOM    AVERAGE
        STATION  ELEVATION    10-YEAR   100-YEAR                                                  SLOPE    A-ZONES
  IF    223.100      8.875      0.000      9.689      0.000      0.000      0.000      0.000      0.054      0.000


            END        END  NEW SURGE  NEW SURGE                                                 BOTTOM    AVERAGE
        STATION  ELEVATION    10-YEAR   100-YEAR                                                  SLOPE    A-ZONES
  IF    226.400      9.014      0.000      9.692      0.000      0.000      0.000      0.000      0.011      0.000


            END        END  NEW SURGE  NEW SURGE                                                 BOTTOM    AVERAGE
        STATION  ELEVATION    10-YEAR   100-YEAR                                                  SLOPE    A-ZONES
  IF    229.700      8.948      0.000      9.697      0.000      0.000      0.000      0.000      0.003      0.000


            END        END  NEW SURGE  NEW SURGE                                                 BOTTOM    AVERAGE
        STATION  ELEVATION    10-YEAR   100-YEAR                                                  SLOPE    A-ZONES
  IF    232.900      9.034      0.000      9.699      0.000      0.000      0.000      0.000      0.035      0.000


            END        END  NEW SURGE  NEW SURGE                                                 BOTTOM    AVERAGE
        STATION  ELEVATION    10-YEAR   100-YEAR                                                  SLOPE    A-ZONES
  IF    236.200      9.177      0.000      9.703      0.000      0.000      0.000      0.000     -0.024      0.000


            END        END  NEW SURGE  NEW SURGE                                                 BOTTOM    AVERAGE
        STATION  ELEVATION    10-YEAR   100-YEAR                                                  SLOPE    A-ZONES
  IF    239.500      8.878      0.000      9.708      0.000      0.000      0.000      0.000     -0.004      0.000


            END        END  NEW SURGE  NEW SURGE                                                 BOTTOM    AVERAGE
        STATION  ELEVATION    10-YEAR   100-YEAR                                                  SLOPE    A-ZONES
  IF    242.800      9.154      0.000      9.707      0.000      0.000      0.000      0.000      0.084      0.000


            END        END  NEW SURGE  NEW SURGE                                                 BOTTOM    AVERAGE
        STATION  ELEVATION    10-YEAR   100-YEAR                                                  SLOPE    A-ZONES
  IF    246.000      9.426      0.000      9.707      0.000      0.000      0.000      0.000      0.065      0.000


            END        END  NEW SURGE  NEW SURGE                                                 BOTTOM    AVERAGE
        STATION  ELEVATION    10-YEAR   100-YEAR                                                  SLOPE    A-ZONES
  IF    251.000      9.688      0.000      9.707      0.000      0.000      0.000      0.000      0.010      0.000


            END        END  NEW SURGE  NEW SURGE                                                 BOTTOM    AVERAGE
        STATION  ELEVATION    10-YEAR   100-YEAR                                                  SLOPE    A-ZONES
  IF    256.000      9.524      0.000      9.707      0.000      0.000      0.000      0.000      0.003      0.000


            END        END  NEW SURGE  NEW SURGE                                                 BOTTOM    AVERAGE
        STATION  ELEVATION    10-YEAR   100-YEAR                                                  SLOPE    A-ZONES
  IF    257.600      9.707      0.000      9.707      0.000      0.000      0.000      0.000      0.114      0.000


            END        END  NEW SURGE  NEW SURGE                                                 BOTTOM    AVERAGE
        STATION  ELEVATION    10-YEAR   100-YEAR                                                  SLOPE    A-ZONES
  AS    319.600      9.626      0.000      9.626      0.000      0.000      0.000      0.000     -0.025      0.000


            END        END  NEW SURGE  NEW SURGE                                                 BOTTOM    AVERAGE
        STATION  ELEVATION    10-YEAR   100-YEAR                                                  SLOPE    A-ZONES
  IF    320.000      9.616      0.000      9.626      0.000      0.000      0.000      0.000      0.000      0.000


            END        END  NEW SURGE  NEW SURGE                                                 BOTTOM    AVERAGE
        STATION  ELEVATION    10-YEAR   100-YEAR                                                  SLOPE    A-ZONES
  IF    320.200      9.626      0.000      9.626      0.000      0.000      0.000      0.000      0.050      0.000


            END        END  NEW SURGE  NEW SURGE                                                 BOTTOM    AVERAGE
        STATION  ELEVATION    10-YEAR   100-YEAR                                                  SLOPE    A-ZONES
  AS    334.300      9.626      0.000      9.626      0.000      0.000      0.000      0.000     -0.099      0.000


            END        END  NEW SURGE  NEW SURGE                                                 BOTTOM    AVERAGE
        STATION  ELEVATION    10-YEAR   100-YEAR                                                  SLOPE    A-ZONES
  IF    338.000      9.259      0.000      9.626      0.000      0.000      0.000      0.000     -0.004      0.000


            END        END  NEW SURGE  NEW SURGE                                                 BOTTOM    AVERAGE
        STATION  ELEVATION    10-YEAR   100-YEAR                                                  SLOPE    A-ZONES
  IF    351.000      9.557      0.000      9.626      0.000      0.000      0.000      0.000      0.012      0.000


            END        END  NEW SURGE  NEW SURGE                                                 BOTTOM    AVERAGE
        STATION  ELEVATION    10-YEAR   100-YEAR                                                  SLOPE    A-ZONES
  IF    358.000      9.491      0.000      9.626      0.000      0.000      0.000      0.000     -0.025      0.000


            END        END  NEW SURGE  NEW SURGE                                                 BOTTOM    AVERAGE
        STATION  ELEVATION    10-YEAR   100-YEAR                                                  SLOPE    A-ZONES
  IF    372.000      9.029      0.000      9.626      0.000      0.000      0.000      0.000     -0.073      0.000


            END        END  NEW SURGE  NEW SURGE                                                 BOTTOM    AVERAGE
        STATION  ELEVATION    10-YEAR   100-YEAR                                                  SLOPE    A-ZONES
  IF    388.500      7.257      0.000      9.626      0.000      0.000      0.000      0.000     -0.071      0.000


            END        END  NEW SURGE  NEW SURGE                                                 BOTTOM    AVERAGE
        STATION  ELEVATION    10-YEAR   100-YEAR                                                  SLOPE    A-ZONES
  IF    400.500      6.995      0.000      9.626      0.000      0.000      0.000      0.000      0.010      0.000


            END        END  NEW SURGE  NEW SURGE                                                 BOTTOM    AVERAGE
        STATION  ELEVATION    10-YEAR   100-YEAR                                                  SLOPE    A-ZONES
  IF    409.000      7.454      0.000      9.626      0.000      0.000      0.000      0.000      0.027      0.000


            END        END  NEW SURGE  NEW SURGE                                                 BOTTOM    AVERAGE
        STATION  ELEVATION    10-YEAR   100-YEAR                                                  SLOPE    A-ZONES
  IF    416.500      7.421      0.000      9.626      0.000      0.000      0.000      0.000     -0.011      0.000


            END        END  NEW SURGE  NEW SURGE                                                 BOTTOM    AVERAGE
        STATION  ELEVATION    10-YEAR   100-YEAR                                                  SLOPE    A-ZONES
  IF    423.500      7.290      0.000      9.626      0.000      0.000      0.000      0.000     -0.018      0.000


            END        END  NEW SURGE  NEW SURGE                                                 BOTTOM    AVERAGE
        STATION  ELEVATION    10-YEAR   100-YEAR                                                  SLOPE    A-ZONES
  IF    431.500      7.159      0.000      9.626      0.000      0.000      0.000      0.000      0.004      0.000


            END        END  NEW SURGE  NEW SURGE                                                 BOTTOM    AVERAGE
        STATION  ELEVATION    10-YEAR   100-YEAR                                                  SLOPE    A-ZONES
  IF    441.500      7.356      0.000      9.626      0.000      0.000      0.000      0.000     -0.008      0.000


            END        END  NEW SURGE  NEW SURGE                                                 BOTTOM    AVERAGE
        STATION  ELEVATION    10-YEAR   100-YEAR                                                  SLOPE    A-ZONES
  IF    448.000      7.028      0.000      9.625      0.000      0.000      0.000      0.000     -0.079      0.000


            END        END  NEW SURGE  NEW SURGE                                                 BOTTOM    AVERAGE
        STATION  ELEVATION    10-YEAR   100-YEAR                                                  SLOPE    A-ZONES
  IF    451.500      6.568      0.000      9.625      0.000      0.000      0.000      0.000     -0.017      0.000


            END        END  NEW SURGE  NEW SURGE                                                 BOTTOM    AVERAGE
        STATION  ELEVATION    10-YEAR   100-YEAR                                                  SLOPE    A-ZONES
  IF    459.500      6.831      0.000      9.625      0.000      0.000      0.000      0.000     -0.009      0.000


            END        END  NEW SURGE  NEW SURGE                                                 BOTTOM    AVERAGE
        STATION  ELEVATION    10-YEAR   100-YEAR                                                  SLOPE    A-ZONES
  IF    469.500      6.404      0.000      9.624      0.000      0.000      0.000      0.000     -0.019      0.000


            END        END  NEW SURGE  NEW SURGE                                                 BOTTOM    AVERAGE
        STATION  ELEVATION    10-YEAR   100-YEAR                                                  SLOPE    A-ZONES
  IF    480.500      6.437      0.000      9.624      0.000      0.000      0.000      0.000     -0.030      0.000


            END        END  NEW SURGE  NEW SURGE                                                 BOTTOM    AVERAGE
        STATION  ELEVATION    10-YEAR   100-YEAR                                                  SLOPE    A-ZONES
  IF    490.000      5.781      0.000      9.623      0.000      0.000      0.000      0.000     -0.032      0.000


            END        END  NEW SURGE  NEW SURGE                                                 BOTTOM    AVERAGE
        STATION  ELEVATION    10-YEAR   100-YEAR                                                  SLOPE    A-ZONES
  IF    499.000      5.846      0.000      9.623      0.000      0.000      0.000      0.000      0.006      0.000


            END        END  NEW SURGE  NEW SURGE                                                 BOTTOM    AVERAGE
        STATION  ELEVATION    10-YEAR   100-YEAR                                                  SLOPE    A-ZONES
  IF    511.500      5.912      0.000      9.622      0.000      0.000      0.000      0.000     -0.013      0.000


            END        END  NEW SURGE  NEW SURGE                                                 BOTTOM    AVERAGE
        STATION  ELEVATION    10-YEAR   100-YEAR                                                  SLOPE    A-ZONES
  IF    520.000      5.584      0.000      9.621      0.000      0.000      0.000      0.000      0.003      0.000


            END        END  NEW SURGE  NEW SURGE                                                 BOTTOM    AVERAGE
        STATION  ELEVATION    10-YEAR   100-YEAR                                                  SLOPE    A-ZONES
  IF    523.500      5.945      0.000      9.621      0.000      0.000      0.000      0.000     -0.010      0.000


            END        END  NEW SURGE  NEW SURGE                                                 BOTTOM    AVERAGE
        STATION  ELEVATION    10-YEAR   100-YEAR                                                  SLOPE    A-ZONES
  IF    533.000      5.453      0.000      9.621      0.000      0.000      0.000      0.000     -0.007      0.000


            END        END  NEW SURGE  NEW SURGE                                                 BOTTOM    AVERAGE
        STATION  ELEVATION    10-YEAR   100-YEAR                                                  SLOPE    A-ZONES
  IF    546.500      5.781      0.000      9.620      0.000      0.000      0.000      0.000      0.001      0.000


            END        END  NEW SURGE  NEW SURGE                                                 BOTTOM    AVERAGE
        STATION  ELEVATION    10-YEAR   100-YEAR                                                  SLOPE    A-ZONES
  IF    558.000      5.486      0.000      9.619      0.000      0.000      0.000      0.000     -0.038      0.000


            END        END  NEW SURGE  NEW SURGE                                                 BOTTOM    AVERAGE
        STATION  ELEVATION    10-YEAR   100-YEAR                                                  SLOPE    A-ZONES
  IF    565.500      5.059      0.000      9.619      0.000      0.000      0.000      0.000     -0.022      0.000


            END        END  NEW SURGE  NEW SURGE                                                 BOTTOM    AVERAGE
        STATION  ELEVATION    10-YEAR   100-YEAR                                                  SLOPE    A-ZONES
  IF    570.000      5.223      0.000      9.618      0.000      0.000      0.000      0.000      0.051      0.000


            END        END  NEW SURGE  NEW SURGE                                                 BOTTOM    AVERAGE
        STATION  ELEVATION    10-YEAR   100-YEAR                                                  SLOPE    A-ZONES
  IF    578.500      5.715      0.000      9.618      0.000      0.000      0.000      0.000      0.034      0.000


            END        END  NEW SURGE  NEW SURGE                                                 BOTTOM    AVERAGE
        STATION  ELEVATION    10-YEAR   100-YEAR                                                  SLOPE    A-ZONES
  IF    589.500      5.879      0.000      9.618      0.000      0.000      0.000      0.000     -0.015      0.000


            END        END  NEW SURGE  NEW SURGE                                                 BOTTOM    AVERAGE
        STATION  ELEVATION    10-YEAR   100-YEAR                                                  SLOPE    A-ZONES
  IF    596.000      5.453      0.000      9.617      0.000      0.000      0.000      0.000     -0.021      0.000


            END        END  NEW SURGE  NEW SURGE                                                 BOTTOM    AVERAGE
        STATION  ELEVATION    10-YEAR   100-YEAR                                                  SLOPE    A-ZONES
  IF    602.000      5.617      0.000      9.617      0.000      0.000      0.000      0.000      0.021      0.000


            END        END  NEW SURGE  NEW SURGE                                                 BOTTOM    AVERAGE
        STATION  ELEVATION    10-YEAR   100-YEAR                                                  SLOPE    A-ZONES
  IF    612.000      5.781      0.000      9.617      0.000      0.000      0.000      0.000     -0.014      0.000


            END        END  NEW SURGE  NEW SURGE                                                 BOTTOM    AVERAGE
        STATION  ELEVATION    10-YEAR   100-YEAR                                                  SLOPE    A-ZONES
  IF    623.000      5.321      0.000      9.616      0.000      0.000      0.000      0.000     -0.007      0.000


            END        END  NEW SURGE  NEW SURGE                                                 BOTTOM    AVERAGE
        STATION  ELEVATION    10-YEAR   100-YEAR                                                  SLOPE    A-ZONES
  IF    634.000      5.617      0.000      9.616      0.000      0.000      0.000      0.000      0.010      0.000


            END        END  NEW SURGE  NEW SURGE                                                 BOTTOM    AVERAGE
        STATION  ELEVATION    10-YEAR   100-YEAR                                                  SLOPE    A-ZONES
  IF    645.000      5.551      0.000      9.615      0.000      0.000      0.000      0.000     -0.034      0.000


            END        END  NEW SURGE  NEW SURGE                                                 BOTTOM    AVERAGE
        STATION  ELEVATION    10-YEAR   100-YEAR                                                  SLOPE    A-ZONES
  IF    655.000      4.895      0.000      9.615      0.000      0.000      0.000      0.000     -0.074      0.000


            END        END  NEW SURGE  NEW SURGE                                                 BOTTOM    AVERAGE
        STATION  ELEVATION    10-YEAR   100-YEAR                                                  SLOPE    A-ZONES
  IF    664.000      4.140      0.000      9.614      0.000      0.000      0.000      0.000     -0.052      0.000


            END        END  NEW SURGE  NEW SURGE                                                 BOTTOM    AVERAGE
[...]

                                        180.40                 1.00                 9.66

                                        183.70                 1.00                 9.66

                                        187.00                 1.00                 9.67

                                        190.30                 1.00                 9.67

                                        193.60                 1.00                 9.67

                                        196.80                 1.00                 9.68

                                        200.10                 1.00                 9.68

                                        203.40                 1.00                 9.69

                                        206.70                 1.00                 9.69

                                        210.00                 1.00                 9.69

                                        213.30                 1.00                 9.69

                                        226.40                 1.00                 9.69

                                        229.70                 1.00                 9.70

                                        232.90                 1.00                 9.70

                                        236.20                 1.00                 9.70

                                        239.50                 1.00                 9.71

                                        242.80                 1.00                 9.71

                                        319.60                 1.00                 9.63

                                        448.00                 1.00                 9.62

                                        469.50                 1.00                 9.62

                                        490.00                 1.00                 9.62

                                        511.50                 1.00                 9.62

                                        520.00                 1.00                 9.62

                                        546.50                 1.00                 9.62

                                        558.00                 1.00                 9.62

                                        570.00                 1.00                 9.62

                                        596.00                 1.00                 9.62

                                        623.00                 1.00                 9.62

                                        645.00                 1.00                 9.61

                                        664.00                 1.00                 9.61

                                        675.00                 1.00                 9.61

                                        700.00                 1.00                 9.61

                                        716.00                 1.00                 9.61

                                        735.50                 1.00                 9.61

                                        754.50                 1.00                 9.61

                                        786.00                 1.00                 9.61

                                        835.50                 1.00                 9.61

                                        879.50                 1.00                 9.61

                                        921.50                 1.00                 9.60

                                       1005.00                 1.00                 9.59

                                       1016.50                 1.00                 9.59

                                       1034.00                 1.00                 9.59

                                       1041.50                 1.00                 9.59

                                       1047.50                 1.00                 9.59

                                       1057.50                 1.00                 9.58

                                       1068.00                 1.00                 9.58

                                       1173.30                 1.00                 9.63



                                                       PART5  LOCATION OF V ZONES

                                             STATION OF GUTTER          LOCATION OF ZONE

                                                      133.55               WINDWARD



                                                   PART6 NUMBERED A ZONES AND V ZONES

                                        STATION OF GUTTER  ELEVATION  ZONE DESIGNATION   FHF


                                               0.00          11.68

                                                                          V23  EL=12     130

                                               4.00          11.69

                                                                          V23  EL=12     130

                                               5.00          11.69

                                                                          V23  EL=12     130

                                              27.00          11.72

                                                                          V23  EL=12     130

                                              28.00          11.72

                                                                          V23  EL=12     130

                                             133.55          11.50

                                                                          A18  EL=12      90

                                             133.59          11.50

                                                                          A18  EL=11      90

                                             134.50          11.43

                                                                          A18  EL=11      90

                                             139.25          10.50

                                                                          A18  EL=10      90

                                             141.10          10.14

                                                                          A18  EL=10      90

                                             144.40          10.29

                                                                          A18  EL=10      90

                                             147.60          10.32

                                                                          A18  EL=10      90

                                             150.90          10.33

                                                                          A18  EL=10      90

                                             154.20          10.34

                                                                          A18  EL=10      90

                                             157.50          10.35

                                                                          A18  EL=10      90

                                             160.80          10.35

                                                                          A18  EL=10      90

                                             164.00          10.35

                                                                          A18  EL=10      90

                                             167.30          10.35

                                                                          A18  EL=10      90

                                             170.60          10.36

                                                                          A18  EL=10      90

                                             173.90          10.36

                                                                          A18  EL=10      90

                                             177.20          10.36

                                                                          A18  EL=10      90

                                             180.40          10.35

                                                                          A18  EL=10      90

                                             183.70          10.35

                                                                          A18  EL=10      90

                                             187.00          10.33

                                                                          A18  EL=10      90

                                             190.30          10.29

                                                                          A18  EL=10      90

                                             193.60          10.25

                                                                          A18  EL=10      90

                                             196.80          10.21

                                                                          A18  EL=10      90

                                             200.10          10.23

                                                                          A18  EL=10      90

                                             203.40          10.23

                                                                          A18  EL=10      90

                                             206.70          10.24

                                                                          A18  EL=10      90

                                             210.00          10.24

                                                                          A18  EL=10      90

                                             213.30          10.25

                                                                          A18  EL=10      90

                                             223.10          10.13

                                                                          A18  EL=10      90

                                             226.40          10.06

                                                                          A18  EL=10      90

                                             229.70          10.08

                                                                          A18  EL=10      90

                                             232.90          10.06

                                                                          A18  EL=10      90

                                             236.20           9.99

                                                                          A18  EL=10      90

                                             239.50          10.03

                                                                          A18  EL=10      90

                                             242.80          10.01

                                                                          A18  EL=10      90

                                             257.60           9.71


                                             319.60           9.63

                                                                          A18  EL=10      90

                                             320.20           9.63


                                             334.30           9.63

                                                                          A18  EL=10      90

                                             441.50           9.85

                                                                          A18  EL=10      90

                                             448.00           9.86

                                                                          A18  EL=10      90

                                             459.50           9.88

                                                                          A18  EL=10      90

                                             469.50           9.89

                                                                          A18  EL=10      90

                                             480.50           9.90

                                                                          A18  EL=10      90

                                             490.00           9.91

                                                                          A18  EL=10      90

                                             499.00           9.93

                                                                          A18  EL=10      90

                                             511.50           9.94

                                                                          A18  EL=10      90

                                             520.00           9.95

                                                                          A18  EL=10      90

                                             533.00           9.96

                                                                          A18  EL=10      90

                                             546.50           9.98

                                                                          A18  EL=10      90

                                             558.00           9.99

                                                                          A18  EL=10      90

                                             565.50          10.00

                                                                          A18  EL=10      90

                                             570.00          10.00

                                                                          A18  EL=10      90

                                             589.50          10.02

                                                                          A18  EL=10      90

                                             596.00          10.03

                                                                          A18  EL=10      90

                                             612.00          10.05

                                                                          A18  EL=10      90

                                             623.00          10.06

                                                                          A18  EL=10      90

                                             634.00          10.07

                                                                          A18  EL=10      90

                                             645.00          10.08

                                                                          A18  EL=10      90

                                             655.00          10.09

                                                                          A18  EL=10      90

                                             664.00          10.09

                                                                          A18  EL=10      90

                                             675.00          10.10

                                                                          A18  EL=10      90

                                             689.00          10.12

                                                                          A18  EL=10      90

                                             700.00          10.13

                                                                          A18  EL=10      90

                                             709.50          10.14

                                                                          A18  EL=10      90

                                             716.00          10.14

                                                                          A18  EL=10      90

                                             725.50          10.15

                                                                          A18  EL=10      90

                                             735.50          10.16

                                                                          A18  EL=10      90

                                             745.00          10.17

                                                                          A18  EL=10      90

                                             754.50          10.17

                                                                          A18  EL=10      90

                                             777.00          10.19

                                                                          A18  EL=10      90

                                             786.00          10.20

                                                                          A18  EL=10      90

                                             816.00          10.22

                                                                          A18  EL=10      90

                                             835.50          10.22

                                                                          A18  EL=10      90

                                             862.50          10.18

                                                                          A18  EL=10      90

                                             879.50          10.11

                                                                          A18  EL=10      90

                                             897.50          10.03

                                                                          A18  EL=10      90

                                             921.50          10.08

                                                                          A18  EL=10      90

                                             987.50          10.07

                                                                          A18  EL=10      90

                                            1005.00          10.07

                                                                          A18  EL=10      90

                                            1016.50          10.11

                                                                          A18  EL=10      90

                                            1034.00          10.12

                                                                          A18  EL=10      90

                                            1041.50          10.14

                                                                          A18  EL=10      90

                                            1047.50          10.14

                                                                          A18  EL=10      90

                                            1057.50          10.14

                                                                          A18  EL=10      90

                                            1068.00          10.14

                                                                          A18  EL=10      90

                                            1108.00           9.59


                                            1173.30           9.63

                                                                          A18  EL=10      90

                                            1190.30           9.63


                                            1226.30           9.63

                                                                          A18  EL=10      90

                                            1226.50           9.63



                                                  ZONE TERMINATED AT END OF TRANSECT



                                                  PART 7   POSTSCRIPT NOTES


                         PS#  1   START(383686.1918,4803090.2879)                                              
                         PS#  2   END(383576.4041,4803600.7391)                                                
