 WAVE HEIGHT COMPUTATIONS FOR FLOOD INSURANCE STUDIES (WHAFIS VERSION 4.0G, 08_2007)
 Executed on: Thu Feb 20 14:57:37 2020
 Input file:  C:\FEMA-TransectAnalysis\LOMR-TransectAnalysis-Harpswell\3_whafis\whafis4\CM-149-1.dat                                          
 Output file: C:\FEMA-TransectAnalysis\LOMR-TransectAnalysis-Harpswell\3_whafis\whafis4\CM-149-1.out                                          



                                                              header                                                                
                                                     THIS IS A 100-YEAR CASE


                                       THE FOLLOWING NON-DEFAULT WIND SPEEDS ARE BEING USED
                                            WINDIF  56.14  WINDOF  56.14  WINDVH  60.00

                                                             PART1 INPUT

          IE      0.000    -50.257      1.000      1.000      8.876      6.826     10.750     56.140      0.140      0.000
          OF      1.000    -50.117      0.000      8.876      0.000      0.000      0.000      0.000      0.140      0.000
          OF      2.000    -49.978      0.000      8.876      0.000      0.000      0.000      0.000      0.139      0.000
          OF      3.000    -49.839      0.000      8.876      0.000      0.000      0.000      0.000      0.139      0.000
          OF      4.000    -49.700      0.000      8.876      0.000      0.000      0.000      0.000      0.139      0.000
          OF      5.000    -49.561      0.000      8.876      0.000      0.000      0.000      0.000      0.139      0.000
          OF      6.000    -49.422      0.000      8.876      0.000      0.000      0.000      0.000      0.140      0.000
          OF      7.000    -49.282      0.000      8.876      0.000      0.000      0.000      0.000      0.140      0.000
          OF      8.000    -49.143      0.000      8.876      0.000      0.000      0.000      0.000      0.140      0.000
          OF      9.000    -49.003      0.000      8.876      0.000      0.000      0.000      0.000      0.140      0.000
          OF     10.000    -48.864      0.000      8.876      0.000      0.000      0.000      0.000      0.139      0.000
          OF     11.000    -48.725      0.000      8.876      0.000      0.000      0.000      0.000      0.139      0.000
          OF     12.000    -48.586      0.000      8.876      0.000      0.000      0.000      0.000      0.142      0.000
          OF     13.000    -48.440      0.000      8.876      0.000      0.000      0.000      0.000      0.146      0.000
          OF     14.000    -48.295      0.000      8.876      0.000      0.000      0.000      0.000      0.146      0.000
          OF     15.000    -48.149      0.000      8.876      0.000      0.000      0.000      0.000      0.146      0.000
          OF     16.000    -48.003      0.000      8.876      0.000      0.000      0.000      0.000      0.146      0.000
          OF     17.000    -47.858      0.000      8.876      0.000      0.000      0.000      0.000      0.146      0.000
          OF     18.000    -47.712      0.000      8.876      0.000      0.000      0.000      0.000      0.146      0.000
          OF     19.000    -47.566      0.000      8.876      0.000      0.000      0.000      0.000      0.146      0.000
          OF     20.000    -47.420      0.000      8.876      0.000      0.000      0.000      0.000      0.146      0.000
          OF     21.000    -47.275      0.000      8.876      0.000      0.000      0.000      0.000      0.146      0.000
          OF     22.000    -47.129      0.000      8.876      0.000      0.000      0.000      0.000      0.146      0.000
          OF     23.000    -46.984      0.000      8.876      0.000      0.000      0.000      0.000      0.146      0.000
          OF     24.000    -46.838      0.000      8.876      0.000      0.000      0.000      0.000      0.146      0.000
          OF     25.000    -46.693      0.000      8.876      0.000      0.000      0.000      0.000      0.146      0.000
          OF     26.000    -46.547      0.000      8.876      0.000      0.000      0.000      0.000      0.146      0.000
          OF     27.000    -46.401      0.000      8.876      0.000      0.000      0.000      0.000      0.146      0.000
          OF     28.000    -46.256      0.000      8.876      0.000      0.000      0.000      0.000      0.146      0.000
          OF     29.000    -46.110      0.000      8.876      0.000      0.000      0.000      0.000      0.146      0.000
          OF     30.000    -45.964      0.000      8.876      0.000      0.000      0.000      0.000      0.146      0.000
          OF     31.000    -45.818      0.000      8.876      0.000      0.000      0.000      0.000      0.146      0.000
          OF     32.000    -45.673      0.000      8.876      0.000      0.000      0.000      0.000      0.146      0.000
          OF     33.000    -45.527      0.000      8.876      0.000      0.000      0.000      0.000      0.146      0.000
          OF     34.000    -45.381      0.000      8.876      0.000      0.000      0.000      0.000      0.146      0.000
          OF     35.000    -45.236      0.000      8.876      0.000      0.000      0.000      0.000      0.145      0.000
          OF     36.000    -45.091      0.000      8.876      0.000      0.000      0.000      0.000      0.146      0.000
          OF     37.000    -44.944      0.000      8.876      0.000      0.000      0.000      0.000      0.146      0.000
          OF     38.000    -44.799      0.000      8.876      0.000      0.000      0.000      0.000      0.146      0.000
          OF     39.000    -44.653      0.000      8.876      0.000      0.000      0.000      0.000      0.146      0.000
          OF     40.000    -44.508      0.000      8.876      0.000      0.000      0.000      0.000      0.146      0.000
          OF     41.000    -44.362      0.000      8.877      0.000      0.000      0.000      0.000      0.146      0.000
          OF     42.000    -44.216      0.000      8.877      0.000      0.000      0.000      0.000      0.146      0.000
          OF     43.000    -44.071      0.000      8.877      0.000      0.000      0.000      0.000      0.146      0.000
          OF     44.000    -43.925      0.000      8.877      0.000      0.000      0.000      0.000      0.146      0.000
          OF     45.000    -43.779      0.000      8.877      0.000      0.000      0.000      0.000      0.146      0.000
          OF     46.000    -43.634      0.000      8.877      0.000      0.000      0.000      0.000      0.146      0.000
          OF     47.000    -43.488      0.000      8.877      0.000      0.000      0.000      0.000      0.146      0.000
          OF     48.000    -43.342      0.000      8.877      0.000      0.000      0.000      0.000      0.146      0.000
          OF     49.000    -43.197      0.000      8.877      0.000      0.000      0.000      0.000      0.146      0.000
          OF     50.000    -43.051      0.000      8.877      0.000      0.000      0.000      0.000      0.146      0.000
          OF     51.000    -42.905      0.000      8.877      0.000      0.000      0.000      0.000      0.146      0.000
          OF     52.000    -42.760      0.000      8.877      0.000      0.000      0.000      0.000      0.146      0.000
          OF     53.000    -42.614      0.000      8.877      0.000      0.000      0.000      0.000      0.146      0.000
          OF     54.000    -42.469      0.000      8.877      0.000      0.000      0.000      0.000      0.146      0.000
          OF     55.000    -42.323      0.000      8.877      0.000      0.000      0.000      0.000      0.146      0.000
          OF     56.000    -42.177      0.000      8.877      0.000      0.000      0.000      0.000      0.146      0.000
          OF     57.000    -42.032      0.000      8.877      0.000      0.000      0.000      0.000      0.146      0.000
          OF     58.000    -41.886      0.000      8.877      0.000      0.000      0.000      0.000      0.146      0.000
          OF     59.000    -41.740      0.000      8.877      0.000      0.000      0.000      0.000      0.146      0.000
          OF     60.000    -41.595      0.000      8.877      0.000      0.000      0.000      0.000      0.146      0.000
          OF     61.000    -41.449      0.000      8.877      0.000      0.000      0.000      0.000      0.146      0.000
          OF     62.000    -41.303      0.000      8.877      0.000      0.000      0.000      0.000      0.146      0.000
          OF     63.000    -41.158      0.000      8.877      0.000      0.000      0.000      0.000      0.146      0.000
          OF     64.000    -41.012      0.000      8.877      0.000      0.000      0.000      0.000      0.146      0.000
          OF     65.000    -40.866      0.000      8.877      0.000      0.000      0.000      0.000      0.146      0.000
          OF     66.000    -40.721      0.000      8.877      0.000      0.000      0.000      0.000      0.146      0.000
          OF     67.000    -40.575      0.000      8.877      0.000      0.000      0.000      0.000      0.146      0.000
          OF     68.000    -40.429      0.000      8.877      0.000      0.000      0.000      0.000      0.146      0.000
          OF     69.000    -40.284      0.000      8.877      0.000      0.000      0.000      0.000      0.146      0.000
          OF     70.000    -40.138      0.000      8.877      0.000      0.000      0.000      0.000      0.146      0.000
          OF     71.000    -39.993      0.000      8.877      0.000      0.000      0.000      0.000      0.146      0.000
          OF     72.000    -39.847      0.000      8.877      0.000      0.000      0.000      0.000      0.146      0.000
          OF     73.000    -39.701      0.000      8.877      0.000      0.000      0.000      0.000      0.146      0.000
          OF     74.000    -39.556      0.000      8.877      0.000      0.000      0.000      0.000      0.146      0.000
          OF     75.000    -39.410      0.000      8.877      0.000      0.000      0.000      0.000      0.146      0.000
          OF     76.000    -39.264      0.000      8.877      0.000      0.000      0.000      0.000      0.146      0.000
          OF     77.000    -39.119      0.000      8.877      0.000      0.000      0.000      0.000      0.146      0.000
          OF     78.000    -38.973      0.000      8.877      0.000      0.000      0.000      0.000      0.146      0.000
          OF     79.000    -38.827      0.000      8.877      0.000      0.000      0.000      0.000      0.146      0.000
          OF     80.000    -38.682      0.000      8.877      0.000      0.000      0.000      0.000      0.146      0.000
          OF     81.000    -38.536      0.000      8.877      0.000      0.000      0.000      0.000      0.146      0.000
          OF     82.000    -38.390      0.000      8.877      0.000      0.000      0.000      0.000      0.146      0.000
          OF     83.000    -38.245      0.000      8.877      0.000      0.000      0.000      0.000      0.146      0.000
          OF     84.000    -38.099      0.000      8.877      0.000      0.000      0.000      0.000      0.146      0.000
          OF     85.000    -37.954      0.000      8.877      0.000      0.000      0.000      0.000      0.146      0.000
          OF     86.000    -37.808      0.000      8.877      0.000      0.000      0.000      0.000      0.146      0.000
          OF     87.000    -37.662      0.000      8.877      0.000      0.000      0.000      0.000      0.146      0.000
          OF     88.000    -37.517      0.000      8.877      0.000      0.000      0.000      0.000      0.146      0.000
          OF     89.000    -37.371      0.000      8.877      0.000      0.000      0.000      0.000      0.113      0.000
          OF     90.000    -37.290      0.000      8.877      0.000      0.000      0.000      0.000      0.075      0.000
          OF     91.000    -37.220      0.000      8.877      0.000      0.000      0.000      0.000      0.070      0.000
          OF     92.000    -37.150      0.000      8.877      0.000      0.000      0.000      0.000      0.070      0.000
          OF     93.000    -37.080      0.000      8.877      0.000      0.000      0.000      0.000      0.070      0.000
          OF     94.000    -37.010      0.000      8.877      0.000      0.000      0.000      0.000      0.070      0.000
          OF     95.000    -36.940      0.000      8.877      0.000      0.000      0.000      0.000      0.069      0.000
          OF     96.000    -36.871      0.000      8.877      0.000      0.000      0.000      0.000      0.069      0.000
          OF     97.000    -36.801      0.000      8.877      0.000      0.000      0.000      0.000      0.070      0.000
          OF     98.000    -36.731      0.000      8.877      0.000      0.000      0.000      0.000      0.070      0.000
          OF     99.000    -36.661      0.000      8.877      0.000      0.000      0.000      0.000      0.070      0.000
          OF    100.000    -36.591      0.000      8.877      0.000      0.000      0.000      0.000      0.069      0.000
          OF    101.000    -36.522      0.000      8.877      0.000      0.000      0.000      0.000      0.069      0.000
          OF    102.000    -36.452      0.000      8.877      0.000      0.000      0.000      0.000      0.070      0.000
          OF    103.000    -36.382      0.000      8.877      0.000      0.000      0.000      0.000      0.070      0.000
          OF    104.000    -36.312      0.000      8.877      0.000      0.000      0.000      0.000      0.070      0.000
          OF    105.000    -36.242      0.000      8.877      0.000      0.000      0.000      0.000      0.070      0.000
          OF    106.000    -36.172      0.000      8.877      0.000      0.000      0.000      0.000      0.069      0.000
          OF    107.000    -36.103      0.000      8.877      0.000      0.000      0.000      0.000      0.069      0.000
          OF    108.000    -36.033      0.000      8.877      0.000      0.000      0.000      0.000      0.070      0.000
          OF    109.000    -35.963      0.000      8.877      0.000      0.000      0.000      0.000      0.070      0.000
          OF    110.000    -35.893      0.000      8.877      0.000      0.000      0.000      0.000      0.070      0.000
          OF    111.000    -35.823      0.000      8.877      0.000      0.000      0.000      0.000      0.070      0.000
          OF    112.000    -35.753      0.000      8.877      0.000      0.000      0.000      0.000      0.069      0.000
          OF    113.000    -35.684      0.000      8.877      0.000      0.000      0.000      0.000      0.069      0.000
          OF    114.000    -35.614      0.000      8.877      0.000      0.000      0.000      0.000      0.070      0.000
          OF    115.000    -35.544      0.000      8.877      0.000      0.000      0.000      0.000      0.070      0.000
          OF    116.000    -35.474      0.000      8.877      0.000      0.000      0.000      0.000      0.070      0.000
          OF    117.000    -35.404      0.000      8.877      0.000      0.000      0.000      0.000      0.069      0.000
          OF    118.000    -35.335      0.000      8.877      0.000      0.000      0.000      0.000      0.069      0.000
          OF    119.000    -35.265      0.000      8.877      0.000      0.000      0.000      0.000      0.070      0.000
          OF    120.000    -35.195      0.000      8.877      0.000      0.000      0.000      0.000      0.070      0.000
          OF    121.000    -35.125      0.000      8.877      0.000      0.000      0.000      0.000      0.070      0.000
          OF    122.000    -35.055      0.000      8.877      0.000      0.000      0.000      0.000      0.070      0.000
          OF    123.000    -34.985      0.000      8.877      0.000      0.000      0.000      0.000      0.069      0.000
          OF    124.000    -34.916      0.000      8.877      0.000      0.000      0.000      0.000      0.069      0.000
          OF    125.000    -34.846      0.000      8.877      0.000      0.000      0.000      0.000      0.070      0.000
          OF    126.000    -34.776      0.000      8.877      0.000      0.000      0.000      0.000      0.070      0.000
          OF    127.000    -34.706      0.000      8.877      0.000      0.000      0.000      0.000      0.070      0.000
          OF    128.000    -34.636      0.000      8.877      0.000      0.000      0.000      0.000      0.069      0.000
          OF    129.000    -34.567      0.000      8.877      0.000      0.000      0.000      0.000      0.069      0.000
          OF    130.000    -34.497      0.000      8.877      0.000      0.000      0.000      0.000      0.070      0.000
          OF    131.000    -34.427      0.000      8.877      0.000      0.000      0.000      0.000      0.070      0.000
          OF    132.000    -34.357      0.000      8.877      0.000      0.000      0.000      0.000      0.070      0.000
          OF    133.000    -34.287      0.000      8.877      0.000      0.000      0.000      0.000      0.070      0.000
          OF    134.000    -34.217      0.000      8.877      0.000      0.000      0.000      0.000      0.069      0.000
          OF    135.000    -34.148      0.000      8.877      0.000      0.000      0.000      0.000      0.069      0.000
          OF    136.000    -34.078      0.000      8.877      0.000      0.000      0.000      0.000      0.070      0.000
          OF    137.000    -34.008      0.000      8.877      0.000      0.000      0.000      0.000      0.070      0.000
          OF    138.000    -33.938      0.000      8.877      0.000      0.000      0.000      0.000      0.070      0.000
          OF    139.000    -33.868      0.000      8.877      0.000      0.000      0.000      0.000      0.070      0.000
          OF    140.000    -33.798      0.000      8.877      0.000      0.000      0.000      0.000      0.069      0.000
          OF    141.000    -33.729      0.000      8.877      0.000      0.000      0.000      0.000      0.069      0.000
          OF    142.000    -33.659      0.000      8.877      0.000      0.000      0.000      0.000      0.070      0.000
          OF    143.000    -33.589      0.000      8.877      0.000      0.000      0.000      0.000      0.070      0.000
          OF    144.000    -33.519      0.000      8.877      0.000      0.000      0.000      0.000      0.070      0.000
          OF    145.000    -33.449      0.000      8.877      0.000      0.000      0.000      0.000      0.069      0.000
          OF    146.000    -33.380      0.000      8.877      0.000      0.000      0.000      0.000      0.072      0.000
          OF    147.000    -33.305      0.000      8.877      0.000      0.000      0.000      0.000      0.077      0.000
          OF    148.000    -33.226      0.000      8.877      0.000      0.000      0.000      0.000      0.079      0.000
          OF    149.000    -33.147      0.000      8.877      0.000      0.000      0.000      0.000      0.079      0.000
          OF    150.000    -33.068      0.000      8.877      0.000      0.000      0.000      0.000      0.079      0.000
          OF    151.000    -32.989      0.000      8.877      0.000      0.000      0.000      0.000      0.079      0.000
          OF    152.000    -32.910      0.000      8.877      0.000      0.000      0.000      0.000      0.079      0.000
          OF    153.000    -32.831      0.000      8.877      0.000      0.000      0.000      0.000      0.079      0.000
          OF    154.000    -32.752      0.000      8.877      0.000      0.000      0.000      0.000      0.079      0.000
          OF    155.000    -32.673      0.000      8.877      0.000      0.000      0.000      0.000      0.079      0.000
          OF    156.000    -32.594      0.000      8.877      0.000      0.000      0.000      0.000      0.079      0.000
          OF    157.000    -32.515      0.000      8.876      0.000      0.000      0.000      0.000      0.079      0.000
          OF    158.000    -32.436      0.000      8.876      0.000      0.000      0.000      0.000      0.079      0.000
          OF    159.000    -32.357      0.000      8.876      0.000      0.000      0.000      0.000      0.079      0.000
          OF    160.000    -32.278      0.000      8.876      0.000      0.000      0.000      0.000      0.079      0.000
          OF    161.000    -32.199      0.000      8.876      0.000      0.000      0.000      0.000      0.079      0.000
          OF    162.000    -32.120      0.000      8.876      0.000      0.000      0.000      0.000      0.079      0.000
          OF    163.000    -32.041      0.000      8.876      0.000      0.000      0.000      0.000      0.079      0.000
          OF    164.000    -31.962      0.000      8.876      0.000      0.000      0.000      0.000      0.079      0.000
          OF    165.000    -31.883      0.000      8.876      0.000      0.000      0.000      0.000      0.079      0.000
          OF    166.000    -31.804      0.000      8.876      0.000      0.000      0.000      0.000      0.079      0.000
          OF    167.000    -31.725      0.000      8.876      0.000      0.000      0.000      0.000      0.079      0.000
          OF    168.000    -31.646      0.000      8.876      0.000      0.000      0.000      0.000      0.079      0.000
          OF    169.000    -31.567      0.000      8.876      0.000      0.000      0.000      0.000      0.079      0.000
          OF    170.000    -31.488      0.000      8.876      0.000      0.000      0.000      0.000      0.079      0.000
          OF    171.000    -31.409      0.000      8.876      0.000      0.000      0.000      0.000      0.079      0.000
          OF    172.000    -31.330      0.000      8.876      0.000      0.000      0.000      0.000      0.079      0.000
          OF    173.000    -31.251      0.000      8.876      0.000      0.000      0.000      0.000      0.079      0.000
          OF    174.000    -31.172      0.000      8.876      0.000      0.000      0.000      0.000      0.079      0.000
          OF    175.000    -31.093      0.000      8.876      0.000      0.000      0.000      0.000      0.079      0.000
          OF    176.000    -31.014      0.000      8.876      0.000      0.000      0.000      0.000      0.079      0.000
          OF    177.000    -30.935      0.000      8.876      0.000      0.000      0.000      0.000      0.079      0.000
          OF    178.000    -30.856      0.000      8.876      0.000      0.000      0.000      0.000      0.079      0.000
          OF    179.000    -30.777      0.000      8.876      0.000      0.000      0.000      0.000      0.079      0.000
          OF    180.000    -30.698      0.000      8.876      0.000      0.000      0.000      0.000      0.079      0.000
          OF    181.000    -30.619      0.000      8.876      0.000      0.000      0.000      0.000      0.079      0.000
          OF    182.000    -30.540      0.000      8.876      0.000      0.000      0.000      0.000      0.079      0.000
          OF    183.000    -30.461      0.000      8.876      0.000      0.000      0.000      0.000      0.079      0.000
          OF    184.000    -30.382      0.000      8.876      0.000      0.000      0.000      0.000      0.079      0.000
          OF    185.000    -30.303      0.000      8.876      0.000      0.000      0.000      0.000      0.079      0.000
          OF    186.000    -30.224      0.000      8.876      0.000      0.000      0.000      0.000      0.079      0.000
          OF    187.000    -30.145      0.000      8.876      0.000      0.000      0.000      0.000      0.079      0.000
          OF    188.000    -30.066      0.000      8.876      0.000      0.000      0.000      0.000      0.079      0.000
          OF    189.000    -29.987      0.000      8.876      0.000      0.000      0.000      0.000      0.079      0.000
          OF    190.000    -29.908      0.000      8.876      0.000      0.000      0.000      0.000      0.079      0.000
          OF    191.000    -29.829      0.000      8.876      0.000      0.000      0.000      0.000      0.079      0.000
          OF    192.000    -29.750      0.000      8.876      0.000      0.000      0.000      0.000      0.079      0.000
          OF    193.000    -29.671      0.000      8.876      0.000      0.000      0.000      0.000      0.079      0.000
          OF    194.000    -29.592      0.000      8.876      0.000      0.000      0.000      0.000      0.079      0.000
          OF    195.000    -29.513      0.000      8.876      0.000      0.000      0.000      0.000      0.079      0.000
          OF    196.000    -29.434      0.000      8.876      0.000      0.000      0.000      0.000      0.079      0.000
          OF    197.000    -29.355      0.000      8.876      0.000      0.000      0.000      0.000      0.079      0.000
          OF    198.000    -29.276      0.000      8.876      0.000      0.000      0.000      0.000      0.079      0.000
          OF    199.000    -29.197      0.000      8.876      0.000      0.000      0.000      0.000      0.079      0.000
          OF    200.000    -29.118      0.000      8.876      0.000      0.000      0.000      0.000      0.079      0.000
          OF    201.000    -29.039      0.000      8.876      0.000      0.000      0.000      0.000      0.079      0.000
          OF    202.000    -28.960      0.000      8.876      0.000      0.000      0.000      0.000      0.079      0.000
          OF    203.000    -28.881      0.000      8.876      0.000      0.000      0.000      0.000      0.079      0.000
          OF    204.000    -28.802      0.000      8.876      0.000      0.000      0.000      0.000      0.079      0.000
          OF    205.000    -28.723      0.000      8.876      0.000      0.000      0.000      0.000      0.079      0.000
          OF    206.000    -28.644      0.000      8.876      0.000      0.000      0.000      0.000      0.079      0.000
          OF    207.000    -28.565      0.000      8.876      0.000      0.000      0.000      0.000      0.079      0.000
          OF    208.000    -28.486      0.000      8.876      0.000      0.000      0.000      0.000      0.079      0.000
          OF    209.000    -28.407      0.000      8.876      0.000      0.000      0.000      0.000      0.079      0.000
          OF    210.000    -28.328      0.000      8.876      0.000      0.000      0.000      0.000      0.079      0.000
          OF    211.000    -28.249      0.000      8.876      0.000      0.000      0.000      0.000      0.079      0.000
          OF    212.000    -28.170      0.000      8.876      0.000      0.000      0.000      0.000      0.079      0.000
          OF    213.000    -28.091      0.000      8.877      0.000      0.000      0.000      0.000      0.079      0.000
          OF    214.000    -28.012      0.000      8.877      0.000      0.000      0.000      0.000      0.079      0.000
          OF    215.000    -27.933      0.000      8.877      0.000      0.000      0.000      0.000      0.079      0.000
          OF    216.000    -27.854      0.000      8.877      0.000      0.000      0.000      0.000      0.079      0.000
          OF    217.000    -27.775      0.000      8.877      0.000      0.000      0.000      0.000      0.079      0.000
          OF    218.000    -27.696      0.000      8.877      0.000      0.000      0.000      0.000      0.079      0.000
          OF    219.000    -27.617      0.000      8.877      0.000      0.000      0.000      0.000      0.079      0.000
          OF    220.000    -27.538      0.000      8.877      0.000      0.000      0.000      0.000      0.079      0.000
          OF    221.000    -27.459      0.000      8.877      0.000      0.000      0.000      0.000      0.079      0.000
          OF    222.000    -27.379      0.000      8.877      0.000      0.000      0.000      0.000      0.079      0.000
          OF    223.000    -27.301      0.000      8.877      0.000      0.000      0.000      0.000      0.079      0.000
          OF    224.000    -27.222      0.000      8.877      0.000      0.000      0.000      0.000      0.079      0.000
          OF    225.000    -27.143      0.000      8.877      0.000      0.000      0.000      0.000      0.079      0.000
          OF    226.000    -27.064      0.000      8.877      0.000      0.000      0.000      0.000      0.079      0.000
          OF    227.000    -26.985      0.000      8.877      0.000      0.000      0.000      0.000      0.079      0.000
          OF    228.000    -26.906      0.000      8.877      0.000      0.000      0.000      0.000      0.079      0.000
          OF    229.000    -26.827      0.000      8.877      0.000      0.000      0.000      0.000      0.079      0.000
          OF    230.000    -26.747      0.000      8.877      0.000      0.000      0.000      0.000      0.079      0.000
          OF    231.000    -26.669      0.000      8.877      0.000      0.000      0.000      0.000      0.079      0.000
          OF    232.000    -26.590      0.000      8.877      0.000      0.000      0.000      0.000      0.079      0.000
          OF    233.000    -26.510      0.000      8.877      0.000      0.000      0.000      0.000      0.079      0.000
          OF    234.000    -26.432      0.000      8.877      0.000      0.000      0.000      0.000      0.079      0.000
          OF    235.000    -26.353      0.000      8.877      0.000      0.000      0.000      0.000      0.079      0.000
          OF    236.000    -26.273      0.000      8.877      0.000      0.000      0.000      0.000      0.079      0.000
          OF    237.000    -26.195      0.000      8.877      0.000      0.000      0.000      0.000      0.079      0.000
          OF    238.000    -26.116      0.000      8.877      0.000      0.000      0.000      0.000      0.079      0.000
          OF    239.000    -26.037      0.000      8.877      0.000      0.000      0.000      0.000      0.079      0.000
          OF    240.000    -25.958      0.000      8.877      0.000      0.000      0.000      0.000      0.079      0.000
          OF    241.000    -25.878      0.000      8.877      0.000      0.000      0.000      0.000      0.079      0.000
          OF    242.000    -25.800      0.000      8.877      0.000      0.000      0.000      0.000      0.079      0.000
          OF    243.000    -25.721      0.000      8.877      0.000      0.000      0.000      0.000      0.079      0.000
          OF    244.000    -25.641      0.000      8.877      0.000      0.000      0.000      0.000      0.079      0.000
          OF    245.000    -25.562      0.000      8.877      0.000      0.000      0.000      0.000      0.079      0.000
          OF    246.000    -25.484      0.000      8.877      0.000      0.000      0.000      0.000      0.079      0.000
          OF    247.000    -25.404      0.000      8.877      0.000      0.000      0.000      0.000      0.079      0.000
          OF    248.000    -25.325      0.000      8.877      0.000      0.000      0.000      0.000      0.079      0.000
          OF    249.000    -25.247      0.000      8.877      0.000      0.000      0.000      0.000      0.079      0.000
          OF    250.000    -25.167      0.000      8.877      0.000      0.000      0.000      0.000      0.079      0.000
          OF    251.000    -25.088      0.000      8.877      0.000      0.000      0.000      0.000      0.079      0.000
          OF    252.000    -25.009      0.000      8.877      0.000      0.000      0.000      0.000      0.079      0.000
          OF    253.000    -24.930      0.000      8.877      0.000      0.000      0.000      0.000      0.079      0.000
          OF    254.000    -24.852      0.000      8.877      0.000      0.000      0.000      0.000      0.079      0.000
          OF    255.000    -24.772      0.000      8.877      0.000      0.000      0.000      0.000      0.079      0.000
          OF    256.000    -24.693      0.000      8.877      0.000      0.000      0.000      0.000      0.079      0.000
          OF    257.000    -24.615      0.000      8.877      0.000      0.000      0.000      0.000      0.079      0.000
          OF    258.000    -24.535      0.000      8.877      0.000      0.000      0.000      0.000      0.079      0.000
          OF    259.000    -24.456      0.000      8.877      0.000      0.000      0.000      0.000      0.106      0.000
          OF    261.000    -24.217      0.000      8.877      0.000      0.000      0.000      0.000      0.193      0.000
          OF    262.000    -23.876      0.000      8.877      0.000      0.000      0.000      0.000      0.342      0.000
          OF    264.000    -23.192      0.000      8.877      0.000      0.000      0.000      0.000      0.342      0.000
          OF    265.000    -22.850      0.000      8.877      0.000      0.000      0.000      0.000      0.342      0.000
          OF    267.000    -22.167      0.000      8.877      0.000      0.000      0.000      0.000      0.342      0.000
          OF    268.000    -21.824      0.000      8.877      0.000      0.000      0.000      0.000      0.342      0.000
          OF    270.000    -21.141      0.000      8.877      0.000      0.000      0.000      0.000      0.342      0.000
          OF    271.000    -20.799      0.000      8.877      0.000      0.000      0.000      0.000      0.342      0.000
          OF    273.000    -20.116      0.000      8.877      0.000      0.000      0.000      0.000      0.342      0.000
          OF    274.000    -19.774      0.000      8.877      0.000      0.000      0.000      0.000      0.342      0.000
          OF    277.000    -18.749      0.000      8.877      0.000      0.000      0.000      0.000      0.277      0.000
          OF    279.000    -18.388      0.000      8.877      0.000      0.000      0.000      0.000      0.164      0.000
          OF    280.000    -18.258      0.000      8.877      0.000      0.000      0.000      0.000      0.130      0.000
          OF    282.000    -17.998      0.000      8.878      0.000      0.000      0.000      0.000      0.130      0.000
          OF    283.000    -17.868      0.000      8.878      0.000      0.000      0.000      0.000      0.130      0.000
          OF    285.000    -17.608      0.000      8.878      0.000      0.000      0.000      0.000      0.130      0.000
          OF    286.000    -17.477      0.000      8.878      0.000      0.000      0.000      0.000      0.130      0.000
          OF    288.000    -17.218      0.000      8.878      0.000      0.000      0.000      0.000      0.130      0.000
          OF    289.000    -17.087      0.000      8.878      0.000      0.000      0.000      0.000      0.130      0.000
          OF    291.000    -16.827      0.000      8.879      0.000      0.000      0.000      0.000      0.130      0.000
          OF    292.000    -16.697      0.000      8.879      0.000      0.000      0.000      0.000      0.130      0.000
          OF    294.000    -16.436      0.000      8.879      0.000      0.000      0.000      0.000      0.130      0.000
          OF    295.000    -16.307      0.000      8.879      0.000      0.000      0.000      0.000      0.130      0.000
          OF    297.000    -16.046      0.000      8.879      0.000      0.000      0.000      0.000      0.130      0.000
          OF    298.000    -15.917      0.000      8.880      0.000      0.000      0.000      0.000      0.144      0.000
          OF    303.000    -15.183      0.000      8.880      0.000      0.000      0.000      0.000      0.159      0.000
          OF    304.000    -14.966      0.000      8.880      0.000      0.000      0.000      0.000      0.216      0.000
          OF    309.000    -13.886      0.000      8.880      0.000      0.000      0.000      0.000      0.216      0.000
          OF    310.000    -13.670      0.000      8.881      0.000      0.000      0.000      0.000      0.216      0.000
          OF    315.000    -12.590      0.000      8.881      0.000      0.000      0.000      0.000      0.216      0.000
          OF    316.000    -12.374      0.000      8.881      0.000      0.000      0.000      0.000      0.216      0.000
          OF    321.000    -11.294      0.000      8.882      0.000      0.000      0.000      0.000      0.216      0.000
          OF    322.000    -11.078      0.000      8.882      0.000      0.000      0.000      0.000      0.216      0.000
          OF    327.000     -9.998      0.000      8.882      0.000      0.000      0.000      0.000      0.216      0.000
          OF    328.000     -9.782      0.000      8.882      0.000      0.000      0.000      0.000      0.216      0.000
          OF    333.000     -8.702      0.000      8.882      0.000      0.000      0.000      0.000      0.216      0.000
          OF    334.000     -8.486      0.000      8.883      0.000      0.000      0.000      0.000      0.216      0.000
          OF    340.000     -7.190      0.000      8.883      0.000      0.000      0.000      0.000      0.178      0.000
          OF    346.000     -6.353      0.000      8.883      0.000      0.000      0.000      0.000      0.135      0.000
          OF    352.000     -5.573      0.000      8.882      0.000      0.000      0.000      0.000      0.136      0.000
          IF    414.000      2.901      0.000      8.880      0.000      0.000      0.000      0.000      0.184      0.000
          IF    419.900      6.896      0.000      9.210      0.000      0.000      0.000      0.000      0.901      0.000
          IF    421.000      9.210      0.000      9.210      0.000      0.000      0.000      0.000      2.104      0.000
          AS    425.500      8.880      0.000      8.880      0.000      0.000      0.000      0.000     -0.026      0.000
          IF    445.500      8.356      0.000      8.880      0.000      0.000      0.000      0.000      0.000      0.000
          IF    457.200      8.880      0.000      8.880      0.000      0.000      0.000      0.000      0.045      0.000
          AS    463.700      8.880      0.000      8.880      0.000      0.000      0.000      0.000     -0.090      0.000
          IF    469.500      8.356      0.000      8.880      0.000      0.000      0.000      0.000     -0.013      0.000
          IF    481.500      8.652      0.000      8.880      0.000      0.000      0.000      0.000      0.031      0.000
          IF    486.300      8.880      0.000      8.880      0.000      0.000      0.000      0.000      0.048      0.000
          AS    505.500      8.880      0.000      8.880      0.000      0.000      0.000      0.000     -0.023      0.000
          IF    507.000      8.845      0.000      8.880      0.000      0.000      0.000      0.000      0.000      0.000
          IF    507.800      8.880      0.000      8.880      0.000      0.000      0.000      0.000      0.044      0.000
          AS    804.300      8.891      0.000      8.891      0.000      0.000      0.000      0.000     -0.177      0.000
          IF    807.500      8.323      0.000      8.891      0.000      0.000      0.000      0.000     -0.137      0.000
          IF    831.000      5.243      0.000      8.891      0.000      0.000      0.000      0.000     -0.139      0.000
          IF    843.500      3.337      0.000      8.891      0.000      0.000      0.000      0.000     -0.051      0.000
          OF   1120.000     -9.526      0.000      8.891      0.000      0.000      0.000      0.000     -0.046      0.000
          OF   1121.000     -9.530      0.000      8.891      0.000      0.000      0.000      0.000      0.022      0.000
          OF   1126.000     -9.397      0.000      8.891      0.000      0.000      0.000      0.000      0.027      0.000
          OF   1127.000     -9.370      0.000      8.891      0.000      0.000      0.000      0.000      0.027      0.000
          OF   1132.000     -9.237      0.000      8.891      0.000      0.000      0.000      0.000      0.027      0.000
          OF   1133.000     -9.210      0.000      8.891      0.000      0.000      0.000      0.000      0.027      0.000
          OF   1138.000     -9.077      0.000      8.891      0.000      0.000      0.000      0.000      0.027      0.000
          OF   1139.000     -9.050      0.000      8.891      0.000      0.000      0.000      0.000      0.027      0.000
          OF   1144.000     -8.917      0.000      8.891      0.000      0.000      0.000      0.000      0.027      0.000
          OF   1145.000     -8.891      0.000      8.891      0.000      0.000      0.000      0.000      0.027      0.000
          OF   1150.000     -8.757      0.000      8.891      0.000      0.000      0.000      0.000      0.027      0.000
          OF   1151.000     -8.731      0.000      8.891      0.000      0.000      0.000      0.000      0.027      0.000
          OF   1156.000     -8.598      0.000      8.891      0.000      0.000      0.000      0.000      0.027      0.000
          OF   1157.000     -8.571      0.000      8.891      0.000      0.000      0.000      0.000      0.027      0.000
          OF   1162.000     -8.438      0.000      8.891      0.000      0.000      0.000      0.000      0.027      0.000
          OF   1163.000     -8.411      0.000      8.891      0.000      0.000      0.000      0.000      0.027      0.000
          OF   1168.000     -8.278      0.000      8.891      0.000      0.000      0.000      0.000      0.027      0.000
          OF   1169.000     -8.252      0.000      8.891      0.000      0.000      0.000      0.000      0.027      0.000
          OF   1174.000     -8.118      0.000      8.891      0.000      0.000      0.000      0.000      0.027      0.000
          OF   1175.000     -8.092      0.000      8.891      0.000      0.000      0.000      0.000      0.027      0.000
          OF   1180.000     -7.959      0.000      8.891      0.000      0.000      0.000      0.000      0.027      0.000
          OF   1181.000     -7.932      0.000      8.891      0.000      0.000      0.000      0.000      0.027      0.000
          OF   1186.000     -7.799      0.000      8.891      0.000      0.000      0.000      0.000      0.027      0.000
          OF   1187.000     -7.772      0.000      8.891      0.000      0.000      0.000      0.000      0.027      0.000
          OF   1192.000     -7.639      0.000      8.891      0.000      0.000      0.000      0.000      0.027      0.000
          OF   1193.000     -7.613      0.000      8.891      0.000      0.000      0.000      0.000      0.027      0.000
          OF   1199.000     -7.453      0.000      8.891      0.000      0.000      0.000      0.000      0.027      0.000
          OF   1204.000     -7.320      0.000      8.891      0.000      0.000      0.000      0.000      0.027      0.000
          OF   1205.000     -7.293      0.000      8.891      0.000      0.000      0.000      0.000      0.027      0.000
          OF   1216.000     -7.000      0.000      8.891      0.000      0.000      0.000      0.000      0.027      0.000
          OF   1217.000     -6.973      0.000      8.891      0.000      0.000      0.000      0.000      0.027      0.000
          OF   1228.000     -6.681      0.000      8.891      0.000      0.000      0.000      0.000      0.027      0.000
          OF   1229.000     -6.654      0.000      8.891      0.000      0.000      0.000      0.000      0.027      0.000
          OF   1240.000     -6.361      0.000      8.891      0.000      0.000      0.000      0.000      0.027      0.000
          OF   1241.000     -6.334      0.000      8.891      0.000      0.000      0.000      0.000      0.027      0.000
          OF   1252.000     -6.041      0.000      8.891      0.000      0.000      0.000      0.000      0.027      0.000
          OF   1253.000     -6.015      0.000      8.891      0.000      0.000      0.000      0.000      0.027      0.000
          OF   1264.000     -5.722      0.000      8.891      0.000      0.000      0.000      0.000      0.027      0.000
          OF   1265.000     -5.695      0.000      8.891      0.000      0.000      0.000      0.000      0.019      0.000
          OF   1277.000     -5.475      0.000      8.891      0.000      0.000      0.000      0.000      0.018      0.000
          OF   1278.000     -5.460      0.000      8.891      0.000      0.000      0.000      0.000      0.015      0.000
          OF   1289.000     -5.291      0.000      8.891      0.000      0.000      0.000      0.000      0.015      0.000
          OF   1290.000     -5.275      0.000      8.891      0.000      0.000      0.000      0.000      0.015      0.000
          OF   1301.000     -5.106      0.000      8.891      0.000      0.000      0.000      0.000      0.015      0.000
          OF   1302.000     -5.090      0.000      8.891      0.000      0.000      0.000      0.000      0.015      0.000
          OF   1313.000     -4.921      0.000      8.891      0.000      0.000      0.000      0.000      0.015      0.000
          OF   1314.000     -4.906      0.000      8.891      0.000      0.000      0.000      0.000      0.015      0.000
          OF   1325.000     -4.736      0.000      8.890      0.000      0.000      0.000      0.000      0.015      0.000
          OF   1326.000     -4.721      0.000      8.890      0.000      0.000      0.000      0.000      0.015      0.000
          OF   1337.000     -4.552      0.000      8.890      0.000      0.000      0.000      0.000      0.015      0.000
          OF   1338.000     -4.536      0.000      8.890      0.000      0.000      0.000      0.000      0.015      0.000
          OF   1349.000     -4.367      0.000      8.890      0.000      0.000      0.000      0.000      0.015      0.000
          OF   1350.000     -4.352      0.000      8.890      0.000      0.000      0.000      0.000      0.015      0.000
          OF   1361.000     -4.182      0.000      8.890      0.000      0.000      0.000      0.000      0.015      0.000
          OF   1362.000     -4.167      0.000      8.890      0.000      0.000      0.000      0.000      0.015      0.000
          OF   1373.000     -3.998      0.000      8.890      0.000      0.000      0.000      0.000      0.015      0.000
          OF   1374.000     -3.982      0.000      8.890      0.000      0.000      0.000      0.000     -0.002      0.000
          OF   1411.000     -4.080      0.000      8.890      0.000      0.000      0.000      0.000     -0.001      0.000
          OF   1496.000     -4.148      0.000      8.891      0.000      0.000      0.000      0.000     -0.001      0.000
          OF   1497.000     -4.149      0.000      8.891      0.000      0.000      0.000      0.000      0.001      0.000
          OF   1508.000     -4.141      0.000      8.891      0.000      0.000      0.000      0.000      0.001      0.000
          OF   1509.000     -4.141      0.000      8.892      0.000      0.000      0.000      0.000      0.001      0.000
          OF   1527.000     -4.126      0.000      8.892      0.000      0.000      0.000      0.000      0.001      0.000
          OF   1530.000     -4.124      0.000      8.892      0.000      0.000      0.000      0.000      0.001      0.000
          OF   1541.000     -4.114      0.000      8.892      0.000      0.000      0.000      0.000      0.001      0.000
          OF   1542.000     -4.112      0.000      8.892      0.000      0.000      0.000      0.000      0.001      0.000
          OF   1553.000     -4.100      0.000      8.892      0.000      0.000      0.000      0.000      0.001      0.000
          OF   1554.000     -4.099      0.000      8.892      0.000      0.000      0.000      0.000      0.001      0.000
          OF   1565.000     -4.087      0.000      8.892      0.000      0.000      0.000      0.000      0.001      0.000
          OF   1566.000     -4.085      0.000      8.892      0.000      0.000      0.000      0.000      0.001      0.000
          OF   1577.000     -4.073      0.000      8.892      0.000      0.000      0.000      0.000      0.001      0.000
          OF   1578.000     -4.072      0.000      8.892      0.000      0.000      0.000      0.000      0.001      0.000
          OF   1589.000     -4.060      0.000      8.892      0.000      0.000      0.000      0.000      0.001      0.000
          OF   1590.000     -4.059      0.000      8.892      0.000      0.000      0.000      0.000      0.001      0.000
          OF   1601.000     -4.046      0.000      8.892      0.000      0.000      0.000      0.000      0.001      0.000
          OF   1602.000     -4.045      0.000      8.892      0.000      0.000      0.000      0.000     -0.004      0.000
          OF   1638.000     -4.181      0.000      8.892      0.000      0.000      0.000      0.000     -0.004      0.000
          OF   1639.000     -4.185      0.000      8.892      0.000      0.000      0.000      0.000      0.002      0.000
          OF   1650.000     -4.161      0.000      8.892      0.000      0.000      0.000      0.000      0.002      0.000
          OF   1651.000     -4.159      0.000      8.892      0.000      0.000      0.000      0.000      0.003      0.000
          OF   1662.000     -4.128      0.000      8.892      0.000      0.000      0.000      0.000      0.003      0.000
          OF   1663.000     -4.126      0.000      8.892      0.000      0.000      0.000      0.000      0.003      0.000
          OF   1674.000     -4.095      0.000      8.892      0.000      0.000      0.000      0.000      0.003      0.000
          OF   1675.000     -4.093      0.000      8.892      0.000      0.000      0.000      0.000      0.003      0.000
          OF   1686.000     -4.062      0.000      8.892      0.000      0.000      0.000      0.000      0.003      0.000
          OF   1687.000     -4.059      0.000      8.892      0.000      0.000      0.000      0.000     -0.004      0.000
          OF   1715.000     -4.169      0.000      8.893      0.000      0.000      0.000      0.000     -0.004      0.000
          OF   1716.000     -4.174      0.000      8.893      0.000      0.000      0.000      0.000      0.009      0.000
          OF   1727.000     -4.061      0.000      8.893      0.000      0.000      0.000      0.000      0.010      0.000
          OF   1728.000     -4.050      0.000      8.893      0.000      0.000      0.000      0.000      0.037      0.000
          OF   1739.000     -3.614      0.000      8.893      0.000      0.000      0.000      0.000      0.041      0.000
          OF   1740.000     -3.562      0.000      8.893      0.000      0.000      0.000      0.000      0.052      0.000
          OF   1763.000     -2.375      0.000      8.893      0.000      0.000      0.000      0.000      0.052      0.000
          OF   1764.000     -2.323      0.000      8.893      0.000      0.000      0.000      0.000     -0.005      0.000
          OF   2544.000     -6.481      0.000      8.906      0.000      0.000      0.000      0.000     -0.005      0.000
          OF   2545.000     -6.475      0.000      8.906      0.000      0.000      0.000      0.000      0.006      0.000
          OF   2556.000     -6.411      0.000      8.906      0.000      0.000      0.000      0.000      0.006      0.000
          OF   2557.000     -6.405      0.000      8.906      0.000      0.000      0.000      0.000      0.006      0.000
          OF   2568.000     -6.340      0.000      8.906      0.000      0.000      0.000      0.000      0.006      0.000
          OF   2569.000     -6.334      0.000      8.906      0.000      0.000      0.000      0.000      0.006      0.000
          OF   2580.000     -6.270      0.000      8.906      0.000      0.000      0.000      0.000      0.006      0.000
          OF   2581.000     -6.265      0.000      8.906      0.000      0.000      0.000      0.000      0.006      0.000
          OF   2592.000     -6.200      0.000      8.906      0.000      0.000      0.000      0.000      0.006      0.000
          OF   2593.000     -6.194      0.000      8.906      0.000      0.000      0.000      0.000      0.006      0.000
          OF   2604.000     -6.130      0.000      8.906      0.000      0.000      0.000      0.000      0.006      0.000
          OF   2605.000     -6.124      0.000      8.906      0.000      0.000      0.000      0.000      0.006      0.000
          OF   2616.000     -6.060      0.000      8.906      0.000      0.000      0.000      0.000      0.006      0.000
          OF   2617.000     -6.054      0.000      8.906      0.000      0.000      0.000      0.000      0.006      0.000
          OF   2628.000     -5.990      0.000      8.906      0.000      0.000      0.000      0.000      0.006      0.000
          OF   2629.000     -5.984      0.000      8.906      0.000      0.000      0.000      0.000      0.006      0.000
          OF   2640.000     -5.920      0.000      8.906      0.000      0.000      0.000      0.000      0.006      0.000
          OF   2641.000     -5.914      0.000      8.906      0.000      0.000      0.000      0.000      0.006      0.000
          OF   2652.000     -5.846      0.000      8.906      0.000      0.000      0.000      0.000      0.007      0.000
          OF   2653.000     -5.835      0.000      8.906      0.000      0.000      0.000      0.000      0.001      0.000
          OF   2663.000     -5.831      0.000      8.906      0.000      0.000      0.000      0.000      0.000      0.000
          OF   2664.000     -5.839      0.000      8.906      0.000      0.000      0.000      0.000     -0.012      0.000
          OF   2927.000     -9.095      0.000      8.910      0.000      0.000      0.000      0.000     -0.012      0.000
          OF   2928.000     -9.085      0.000      8.910      0.000      0.000      0.000      0.000      0.010      0.000
          OF   2933.000     -9.037      0.000      8.910      0.000      0.000      0.000      0.000      0.010      0.000
          OF   2934.000     -9.027      0.000      8.910      0.000      0.000      0.000      0.000      0.010      0.000
          OF   2939.000     -8.979      0.000      8.910      0.000      0.000      0.000      0.000      0.010      0.000
          OF   2940.000     -8.969      0.000      8.910      0.000      0.000      0.000      0.000      0.010      0.000
          OF   2945.000     -8.920      0.000      8.910      0.000      0.000      0.000      0.000      0.010      0.000
          OF   2946.000     -8.911      0.000      8.910      0.000      0.000      0.000      0.000      0.010      0.000
          OF   2951.000     -8.862      0.000      8.910      0.000      0.000      0.000      0.000      0.010      0.000
          OF   2952.000     -8.853      0.000      8.910      0.000      0.000      0.000      0.000      0.010      0.000
          OF   2957.000     -8.804      0.000      8.911      0.000      0.000      0.000      0.000      0.010      0.000
          OF   2958.000     -8.795      0.000      8.911      0.000      0.000      0.000      0.000      0.010      0.000
          OF   2963.000     -8.746      0.000      8.911      0.000      0.000      0.000      0.000      0.010      0.000
          OF   2964.000     -8.736      0.000      8.911      0.000      0.000      0.000      0.000      0.010      0.000
          OF   2969.000     -8.689      0.000      8.911      0.000      0.000      0.000      0.000      0.009      0.000
          OF   2970.000     -8.679      0.000      8.911      0.000      0.000      0.000      0.000      0.009      0.000
          OF   2975.000     -8.633      0.000      8.911      0.000      0.000      0.000      0.000      0.009      0.000
          OF   2976.000     -8.624      0.000      8.911      0.000      0.000      0.000      0.000      0.009      0.000
          OF   2981.000     -8.578      0.000      8.911      0.000      0.000      0.000      0.000      0.009      0.000
          OF   2982.000     -8.568      0.000      8.911      0.000      0.000      0.000      0.000      0.009      0.000
          OF   2987.000     -8.522      0.000      8.911      0.000      0.000      0.000      0.000      0.009      0.000
          OF   2988.000     -8.513      0.000      8.911      0.000      0.000      0.000      0.000      0.009      0.000
          OF   2993.000     -8.467      0.000      8.911      0.000      0.000      0.000      0.000      0.009      0.000
          OF   2994.000     -8.457      0.000      8.911      0.000      0.000      0.000      0.000      0.009      0.000
          OF   2999.000     -8.411      0.000      8.911      0.000      0.000      0.000      0.000      0.009      0.000
          OF   3000.000     -8.402      0.000      8.911      0.000      0.000      0.000      0.000      0.009      0.000
          OF   3005.000     -8.356      0.000      8.911      0.000      0.000      0.000      0.000      0.009      0.000
          OF   3006.000     -8.346      0.000      8.911      0.000      0.000      0.000      0.000      0.009      0.000
          OF   3011.000     -8.300      0.000      8.911      0.000      0.000      0.000      0.000      0.009      0.000
          OF   3012.000     -8.291      0.000      8.911      0.000      0.000      0.000      0.000      0.009      0.000
          OF   3017.000     -8.245      0.000      8.911      0.000      0.000      0.000      0.000      0.009      0.000
          OF   3018.000     -8.235      0.000      8.911      0.000      0.000      0.000      0.000      0.009      0.000
          OF   3023.000     -8.189      0.000      8.911      0.000      0.000      0.000      0.000      0.009      0.000
          OF   3024.000     -8.180      0.000      8.911      0.000      0.000      0.000      0.000      0.009      0.000
          OF   3029.000     -8.135      0.000      8.911      0.000      0.000      0.000      0.000      0.009      0.000
          OF   3030.000     -8.125      0.000      8.911      0.000      0.000      0.000      0.000      0.009      0.000
          OF   3036.000     -8.070      0.000      8.911      0.000      0.000      0.000      0.000      0.009      0.000
          OF   3039.000     -8.043      0.000      8.912      0.000      0.000      0.000      0.000      0.009      0.000
          OF   3044.000     -7.997      0.000      8.912      0.000      0.000      0.000      0.000      0.041      0.000
          OF   3045.000     -7.797      0.000      8.912      0.000      0.000      0.000      0.000      0.210      0.000
          OF   3056.000     -5.477      0.000      8.912      0.000      0.000      0.000      0.000      0.211      0.000
          OF   3057.000     -5.266      0.000      8.912      0.000      0.000      0.000      0.000      0.206      0.000
          IF   3096.000      2.746      0.000      8.912      0.000      0.000      0.000      0.000      0.205      0.000
          IF   3097.000      2.914      0.000      8.912      0.000      0.000      0.000      0.000      0.315      0.000
          IF   3115.600      8.912      0.000      8.912      0.000      0.000      0.000      0.000      0.322      0.000
          ET      0.000      0.000      0.000      0.000      0.000      0.000      0.000      0.000      0.000      0.000
1


            END        END      FETCH SURGE ELEV SURGE ELEV    INITIAL    INITIAL                BOTTOM    AVERAGE
        STATION  ELEVATION     LENGTH    10-YEAR   100-YEAR WAVE HEIGHT  W. PERIOD                SLOPE    A-ZONES
  IE      0.000    -50.257      1.000      1.000      8.876      6.826     10.750     56.140      0.140      0.000


            END        END  NEW SURGE  NEW SURGE                                                 BOTTOM    AVERAGE
        STATION  ELEVATION    10-YEAR   100-YEAR                                                  SLOPE    A-ZONES
  OF      1.000    -50.117      0.000      8.876      0.000      0.000      0.000      0.000      0.140      0.000


            END        END  NEW SURGE  NEW SURGE                                                 BOTTOM    AVERAGE
        STATION  ELEVATION    10-YEAR   100-YEAR                                                  SLOPE    A-ZONES
  OF      2.000    -49.978      0.000      8.876      0.000      0.000      0.000      0.000      0.139      0.000


            END        END  NEW SURGE  NEW SURGE                                                 BOTTOM    AVERAGE
        STATION  ELEVATION    10-YEAR   100-YEAR                                                  SLOPE    A-ZONES
  OF      3.000    -49.839      0.000      8.876      0.000      0.000      0.000      0.000      0.139      0.000


            END        END  NEW SURGE  NEW SURGE                                                 BOTTOM    AVERAGE
        STATION  ELEVATION    10-YEAR   100-YEAR                                                  SLOPE    A-ZONES
  OF      4.000    -49.700      0.000      8.876      0.000      0.000      0.000      0.000      0.139      0.000


            END        END  NEW SURGE  NEW SURGE                                                 BOTTOM    AVERAGE
        STATION  ELEVATION    10-YEAR   100-YEAR                                                  SLOPE    A-ZONES
  OF      5.000    -49.561      0.000      8.876      0.000      0.000      0.000      0.000      0.139      0.000


            END        END  NEW SURGE  NEW SURGE                                                 BOTTOM    AVERAGE
        STATION  ELEVATION    10-YEAR   100-YEAR                                                  SLOPE    A-ZONES
  OF      6.000    -49.422      0.000      8.876      0.000      0.000      0.000      0.000      0.140      0.000


            END        END  NEW SURGE  NEW SURGE                                                 BOTTOM    AVERAGE
        STATION  ELEVATION    10-YEAR   100-YEAR                                                  SLOPE    A-ZONES
  OF      7.000    -49.282      0.000      8.876      0.000      0.000      0.000      0.000      0.140      0.000


            END        END  NEW SURGE  NEW SURGE                                                 BOTTOM    AVERAGE
        STATION  ELEVATION    10-YEAR   100-YEAR                                                  SLOPE    A-ZONES
  OF      8.000    -49.143      0.000      8.876      0.000      0.000      0.000      0.000      0.140      0.000


            END        END  NEW SURGE  NEW SURGE                                                 BOTTOM    AVERAGE
        STATION  ELEVATION    10-YEAR   100-YEAR                                                  SLOPE    A-ZONES
  OF      9.000    -49.003      0.000      8.876      0.000      0.000      0.000      0.000      0.140      0.000


            END        END  NEW SURGE  NEW SURGE                                                 BOTTOM    AVERAGE
        STATION  ELEVATION    10-YEAR   100-YEAR                                                  SLOPE    A-ZONES
  OF     10.000    -48.864      0.000      8.876      0.000      0.000      0.000      0.000      0.139      0.000


            END        END  NEW SURGE  NEW SURGE                                                 BOTTOM    AVERAGE
        STATION  ELEVATION    10-YEAR   100-YEAR                                                  SLOPE    A-ZONES
  OF     11.000    -48.725      0.000      8.876      0.000      0.000      0.000      0.000      0.139      0.000


            END        END  NEW SURGE  NEW SURGE                                                 BOTTOM    AVERAGE
        STATION  ELEVATION    10-YEAR   100-YEAR                                                  SLOPE    A-ZONES
  OF     12.000    -48.586      0.000      8.876      0.000      0.000      0.000      0.000      0.142      0.000


            END        END  NEW SURGE  NEW SURGE                                                 BOTTOM    AVERAGE
        STATION  ELEVATION    10-YEAR   100-YEAR                                                  SLOPE    A-ZONES
  OF     13.000    -48.440      0.000      8.876      0.000      0.000      0.000      0.000      0.146      0.000


            END        END  NEW SURGE  NEW SURGE                                                 BOTTOM    AVERAGE
        STATION  ELEVATION    10-YEAR   100-YEAR                                                  SLOPE    A-ZONES
  OF     14.000    -48.295      0.000      8.876      0.000      0.000      0.000      0.000      0.146      0.000


            END        END  NEW SURGE  NEW SURGE                                                 BOTTOM    AVERAGE
        STATION  ELEVATION    10-YEAR   100-YEAR                                                  SLOPE    A-ZONES
  OF     15.000    -48.149      0.000      8.876      0.000      0.000      0.000      0.000      0.146      0.000


            END        END  NEW SURGE  NEW SURGE                                                 BOTTOM    AVERAGE
        STATION  ELEVATION    10-YEAR   100-YEAR                                                  SLOPE    A-ZONES
  OF     16.000    -48.003      0.000      8.876      0.000      0.000      0.000      0.000      0.146      0.000


            END        END  NEW SURGE  NEW SURGE                                                 BOTTOM    AVERAGE
        STATION  ELEVATION    10-YEAR   100-YEAR                                                  SLOPE    A-ZONES
  OF     17.000    -47.858      0.000      8.876      0.000      0.000      0.000      0.000      0.146      0.000


            END        END  NEW SURGE  NEW SURGE                                                 BOTTOM    AVERAGE
        STATION  ELEVATION    10-YEAR   100-YEAR                                                  SLOPE    A-ZONES
  OF     18.000    -47.712      0.000      8.876      0.000      0.000      0.000      0.000      0.146      0.000


            END        END  NEW SURGE  NEW SURGE                                                 BOTTOM    AVERAGE
        STATION  ELEVATION    10-YEAR   100-YEAR                                                  SLOPE    A-ZONES
  OF     19.000    -47.566      0.000      8.876      0.000      0.000      0.000      0.000      0.146      0.000


            END        END  NEW SURGE  NEW SURGE                                                 BOTTOM    AVERAGE
        STATION  ELEVATION    10-YEAR   100-YEAR                                                  SLOPE    A-ZONES
  OF     20.000    -47.420      0.000      8.876      0.000      0.000      0.000      0.000      0.146      0.000


            END        END  NEW SURGE  NEW SURGE                                                 BOTTOM    AVERAGE
        STATION  ELEVATION    10-YEAR   100-YEAR                                                  SLOPE    A-ZONES
  OF     21.000    -47.275      0.000      8.876      0.000      0.000      0.000      0.000      0.146      0.000


            END        END  NEW SURGE  NEW SURGE                                                 BOTTOM    AVERAGE
        STATION  ELEVATION    10-YEAR   100-YEAR                                                  SLOPE    A-ZONES
  OF     22.000    -47.129      0.000      8.876      0.000      0.000      0.000      0.000      0.146      0.000


            END        END  NEW SURGE  NEW SURGE                                                 BOTTOM    AVERAGE
        STATION  ELEVATION    10-YEAR   100-YEAR                                                  SLOPE    A-ZONES
  OF     23.000    -46.984      0.000      8.876      0.000      0.000      0.000      0.000      0.146      0.000


            END        END  NEW SURGE  NEW SURGE                                                 BOTTOM    AVERAGE
        STATION  ELEVATION    10-YEAR   100-YEAR                                                  SLOPE    A-ZONES
  OF     24.000    -46.838      0.000      8.876      0.000      0.000      0.000      0.000      0.146      0.000


            END        END  NEW SURGE  NEW SURGE                                                 BOTTOM    AVERAGE
        STATION  ELEVATION    10-YEAR   100-YEAR                                                  SLOPE    A-ZONES
  OF     25.000    -46.693      0.000      8.876      0.000      0.000      0.000      0.000      0.146      0.000


            END        END  NEW SURGE  NEW SURGE                                                 BOTTOM    AVERAGE
        STATION  ELEVATION    10-YEAR   100-YEAR                                                  SLOPE    A-ZONES
  OF     26.000    -46.547      0.000      8.876      0.000      0.000      0.000      0.000      0.146      0.000


            END        END  NEW SURGE  NEW SURGE                                                 BOTTOM    AVERAGE
        STATION  ELEVATION    10-YEAR   100-YEAR                                                  SLOPE    A-ZONES
  OF     27.000    -46.401      0.000      8.876      0.000      0.000      0.000      0.000      0.146      0.000


            END        END  NEW SURGE  NEW SURGE                                                 BOTTOM    AVERAGE
        STATION  ELEVATION    10-YEAR   100-YEAR                                                  SLOPE    A-ZONES
  OF     28.000    -46.256      0.000      8.876      0.000      0.000      0.000      0.000      0.146      0.000


            END        END  NEW SURGE  NEW SURGE                                                 BOTTOM    AVERAGE
        STATION  ELEVATION    10-YEAR   100-YEAR                                                  SLOPE    A-ZONES
  OF     29.000    -46.110      0.000      8.876      0.000      0.000      0.000      0.000      0.146      0.000


            END        END  NEW SURGE  NEW SURGE                                                 BOTTOM    AVERAGE
        STATION  ELEVATION    10-YEAR   100-YEAR                                                  SLOPE    A-ZONES
  OF     30.000    -45.964      0.000      8.876      0.000      0.000      0.000      0.000      0.146      0.000


            END        END  NEW SURGE  NEW SURGE                                                 BOTTOM    AVERAGE
        STATION  ELEVATION    10-YEAR   100-YEAR                                                  SLOPE    A-ZONES
  OF     31.000    -45.818      0.000      8.876      0.000      0.000      0.000      0.000      0.146      0.000


            END        END  NEW SURGE  NEW SURGE                                                 BOTTOM    AVERAGE
        STATION  ELEVATION    10-YEAR   100-YEAR                                                  SLOPE    A-ZONES
  OF     32.000    -45.673      0.000      8.876      0.000      0.000      0.000      0.000      0.146      0.000


            END        END  NEW SURGE  NEW SURGE                                                 BOTTOM    AVERAGE
        STATION  ELEVATION    10-YEAR   100-YEAR                                                  SLOPE    A-ZONES
  OF     33.000    -45.527      0.000      8.876      0.000      0.000      0.000      0.000      0.146      0.000


            END        END  NEW SURGE  NEW SURGE                                                 BOTTOM    AVERAGE
        STATION  ELEVATION    10-YEAR   100-YEAR                                                  SLOPE    A-ZONES
  OF     34.000    -45.381      0.000      8.876      0.000      0.000      0.000      0.000      0.146      0.000


            END        END  NEW SURGE  NEW SURGE                                                 BOTTOM    AVERAGE
        STATION  ELEVATION    10-YEAR   100-YEAR                                                  SLOPE    A-ZONES
  OF     35.000    -45.236      0.000      8.876      0.000      0.000      0.000      0.000      0.145      0.000


            END        END  NEW SURGE  NEW SURGE                                                 BOTTOM    AVERAGE
        STATION  ELEVATION    10-YEAR   100-YEAR                                                  SLOPE    A-ZONES
  OF     36.000    -45.091      0.000      8.876      0.000      0.000      0.000      0.000      0.146      0.000


            END        END  NEW SURGE  NEW SURGE                                                 BOTTOM    AVERAGE
        STATION  ELEVATION    10-YEAR   100-YEAR                                                  SLOPE    A-ZONES
  OF     37.000    -44.944      0.000      8.876      0.000      0.000      0.000      0.000      0.146      0.000


            END        END  NEW SURGE  NEW SURGE                                                 BOTTOM    AVERAGE
        STATION  ELEVATION    10-YEAR   100-YEAR                                                  SLOPE    A-ZONES
  OF     38.000    -44.799      0.000      8.876      0.000      0.000      0.000      0.000      0.146      0.000


            END        END  NEW SURGE  NEW SURGE                                                 BOTTOM    AVERAGE
        STATION  ELEVATION    10-YEAR   100-YEAR                                                  SLOPE    A-ZONES
  OF     39.000    -44.653      0.000      8.876      0.000      0.000      0.000      0.000      0.146      0.000


            END        END  NEW SURGE  NEW SURGE                                                 BOTTOM    AVERAGE
        STATION  ELEVATION    10-YEAR   100-YEAR                                                  SLOPE    A-ZONES
  OF     40.000    -44.508      0.000      8.876      0.000      0.000      0.000      0.000      0.146      0.000


            END        END  NEW SURGE  NEW SURGE                                                 BOTTOM    AVERAGE
        STATION  ELEVATION    10-YEAR   100-YEAR                                                  SLOPE    A-ZONES
  OF     41.000    -44.362      0.000      8.877      0.000      0.000      0.000      0.000      0.146      0.000


            END        END  NEW SURGE  NEW SURGE                                                 BOTTOM    AVERAGE
        STATION  ELEVATION    10-YEAR   100-YEAR                                                  SLOPE    A-ZONES
  OF     42.000    -44.216      0.000      8.877      0.000      0.000      0.000      0.000      0.146      0.000


            END        END  NEW SURGE  NEW SURGE                                                 BOTTOM    AVERAGE
        STATION  ELEVATION    10-YEAR   100-YEAR                                                  SLOPE    A-ZONES
  OF     43.000    -44.071      0.000      8.877      0.000      0.000      0.000      0.000      0.146      0.000


            END        END  NEW SURGE  NEW SURGE                                                 BOTTOM    AVERAGE
        STATION  ELEVATION    10-YEAR   100-YEAR                                                  SLOPE    A-ZONES
  OF     44.000    -43.925      0.000      8.877      0.000      0.000      0.000      0.000      0.146      0.000


            END        END  NEW SURGE  NEW SURGE                                                 BOTTOM    AVERAGE
        STATION  ELEVATION    10-YEAR   100-YEAR                                                  SLOPE    A-ZONES
  OF     45.000    -43.779      0.000      8.877      0.000      0.000      0.000      0.000      0.146      0.000


            END        END  NEW SURGE  NEW SURGE                                                 BOTTOM    AVERAGE
        STATION  ELEVATION    10-YEAR   100-YEAR                                                  SLOPE    A-ZONES
  OF     46.000    -43.634      0.000      8.877      0.000      0.000      0.000      0.000      0.146      0.000


            END        END  NEW SURGE  NEW SURGE                                                 BOTTOM    AVERAGE
        STATION  ELEVATION    10-YEAR   100-YEAR                                                  SLOPE    A-ZONES
  OF     47.000    -43.488      0.000      8.877      0.000      0.000      0.000      0.000      0.146      0.000


            END        END  NEW SURGE  NEW SURGE                                                 BOTTOM    AVERAGE
        STATION  ELEVATION    10-YEAR   100-YEAR                                                  SLOPE    A-ZONES
  OF     48.000    -43.342      0.000      8.877      0.000      0.000      0.000      0.000      0.146      0.000


            END        END  NEW SURGE  NEW SURGE                                                 BOTTOM    AVERAGE
        STATION  ELEVATION    10-YEAR   100-YEAR                                                  SLOPE    A-ZONES
  OF     49.000    -43.197      0.000      8.877      0.000      0.000      0.000      0.000      0.146      0.000


            END        END  NEW SURGE  NEW SURGE                                                 BOTTOM    AVERAGE
        STATION  ELEVATION    10-YEAR   100-YEAR                                                  SLOPE    A-ZONES
  OF     50.000    -43.051      0.000      8.877      0.000      0.000      0.000      0.000      0.146      0.000


            END        END  NEW SURGE  NEW SURGE                                                 BOTTOM    AVERAGE
        STATION  ELEVATION    10-YEAR   100-YEAR                                                  SLOPE    A-ZONES
  OF     51.000    -42.905      0.000      8.877      0.000      0.000      0.000      0.000      0.146      0.000


            END        END  NEW SURGE  NEW SURGE                                                 BOTTOM    AVERAGE
        STATION  ELEVATION    10-YEAR   100-YEAR                                                  SLOPE    A-ZONES
  OF     52.000    -42.760      0.000      8.877      0.000      0.000      0.000      0.000      0.146      0.000


            END        END  NEW SURGE  NEW SURGE                                                 BOTTOM    AVERAGE
        STATION  ELEVATION    10-YEAR   100-YEAR                                                  SLOPE    A-ZONES
  OF     53.000    -42.614      0.000      8.877      0.000      0.000      0.000      0.000      0.146      0.000


            END        END  NEW SURGE  NEW SURGE                                                 BOTTOM    AVERAGE
        STATION  ELEVATION    10-YEAR   100-YEAR                                                  SLOPE    A-ZONES
  OF     54.000    -42.469      0.000      8.877      0.000      0.000      0.000      0.000      0.146      0.000


            END        END  NEW SURGE  NEW SURGE                                                 BOTTOM    AVERAGE
        STATION  ELEVATION    10-YEAR   100-YEAR                                                  SLOPE    A-ZONES
  OF     55.000    -42.323      0.000      8.877      0.000      0.000      0.000      0.000      0.146      0.000


            END        END  NEW SURGE  NEW SURGE                                                 BOTTOM    AVERAGE
        STATION  ELEVATION    10-YEAR   100-YEAR                                                  SLOPE    A-ZONES
  OF     56.000    -42.177      0.000      8.877      0.000      0.000      0.000      0.000      0.146      0.000


            END        END  NEW SURGE  NEW SURGE                                                 BOTTOM    AVERAGE
        STATION  ELEVATION    10-YEAR   100-YEAR                                                  SLOPE    A-ZONES
  OF     57.000    -42.032      0.000      8.877      0.000      0.000      0.000      0.000      0.146      0.000


[...]

                                              1914.00         1.54         1.45         9.97

                                              2014.00         1.63         1.49        10.04

                                              2114.00         1.72         1.53        10.10

                                              2214.00         1.80         1.57        10.16

                                              2314.00         1.88         1.61        10.22

                                              2514.00         2.03         1.67        10.33

                                        OF    2544.00         2.05         1.68        10.34

                                        OF    2545.00         2.05         1.68        10.34

                                        OF    2556.00         2.06         1.69        10.35

                                        OF    2557.00         2.06         1.69        10.35

                                        OF    2568.00         2.07         1.69        10.35

                                        OF    2569.00         2.07         1.69        10.36

                                        OF    2580.00         2.08         1.69        10.36

                                        OF    2581.00         2.08         1.69        10.36

                                        OF    2592.00         2.09         1.70        10.37

                                        OF    2593.00         2.09         1.70        10.37

                                        OF    2604.00         2.10         1.70        10.37

                                        OF    2605.00         2.10         1.70        10.37

                                        OF    2616.00         2.10         1.71        10.38

                                        OF    2617.00         2.10         1.71        10.38

                                        OF    2628.00         2.11         1.71        10.38

                                        OF    2629.00         2.11         1.71        10.39

                                        OF    2640.00         2.12         1.71        10.39

                                        OF    2641.00         2.12         1.71        10.39

                                        OF    2652.00         2.13         1.72        10.40

                                        OF    2653.00         2.13         1.72        10.40

                                        OF    2663.00         2.14         1.72        10.40

                                        OF    2664.00         2.14         1.72        10.40

                                              2848.10         2.26         1.77        10.49

                                        OF    2927.00         2.31         1.80        10.53

                                        OF    2928.00         2.31         1.80        10.53

                                        OF    2933.00         2.31         1.80        10.53

                                        OF    2934.00         2.31         1.80        10.53

                                        OF    2939.00         2.32         1.80        10.53

                                        OF    2940.00         2.32         1.80        10.53

                                        OF    2945.00         2.32         1.80        10.53

                                        OF    2946.00         2.32         1.80        10.53

                                        OF    2951.00         2.32         1.80        10.54

                                        OF    2952.00         2.32         1.80        10.54

                                        OF    2957.00         2.33         1.81        10.54

                                        OF    2958.00         2.33         1.81        10.54

                                        OF    2963.00         2.33         1.81        10.54

                                        OF    2964.00         2.33         1.81        10.54

                                        OF    2969.00         2.33         1.81        10.55

                                        OF    2970.00         2.34         1.81        10.55

                                        OF    2975.00         2.34         1.81        10.55

                                        OF    2976.00         2.34         1.81        10.55

                                        OF    2981.00         2.34         1.81        10.55

                                        OF    2982.00         2.34         1.81        10.55

                                        OF    2987.00         2.35         1.81        10.55

                                        OF    2988.00         2.35         1.81        10.55

                                        OF    2993.00         2.35         1.82        10.56

                                        OF    2994.00         2.35         1.82        10.56

                                        OF    2999.00         2.35         1.82        10.56

                                        OF    3000.00         2.35         1.82        10.56

                                        OF    3005.00         2.36         1.82        10.56

                                        OF    3006.00         2.36         1.82        10.56

                                        OF    3011.00         2.36         1.82        10.56

                                        OF    3012.00         2.36         1.82        10.56

                                        OF    3017.00         2.37         1.82        10.57

                                        OF    3018.00         2.37         1.82        10.57

                                        OF    3023.00         2.37         1.82        10.57

                                        OF    3024.00         2.37         1.82        10.57

                                        OF    3029.00         2.37         1.83        10.57

                                        OF    3030.00         2.37         1.83        10.57

                                        OF    3036.00         2.38         1.83        10.57

                                        OF    3039.00         2.38         1.83        10.58

                                        OF    3044.00         2.38         1.83        10.58

                                        OF    3045.00         2.38         1.83        10.58

                                        OF    3056.00         2.39         1.83        10.59

                                        OF    3057.00         2.39         1.83        10.59

                                        IF    3096.00         2.35         1.84        10.55

                                        IF    3097.00         2.34         1.84        10.55

                                        IF    3115.60         0.01         1.85         8.92



                                        PART3 LOCATION OF AREAS ABOVE 100-YEAR SURGE

                                             BETWEEN    421.00 AND    425.50

                                             BETWEEN    457.20 AND    463.70

                                             BETWEEN    486.30 AND    505.50

                                             BETWEEN    507.80 AND    804.30



                                                  PART4 LOCATION OF SURGE CHANGES

                                        STATION          10-YEAR SURGE          100-YEAR SURGE

                                         41.00                 1.00                 8.88

                                        157.00                 1.00                 8.88

                                        213.00                 1.00                 8.88

                                        282.00                 1.00                 8.88

                                        291.00                 1.00                 8.88

                                        298.00                 1.00                 8.88

                                        310.00                 1.00                 8.88

                                        321.00                 1.00                 8.88

                                        334.00                 1.00                 8.88

                                        352.00                 1.00                 8.88

                                        414.00                 1.00                 8.88

                                        419.90                 1.00                 9.21

                                        425.50                 1.00                 8.88

                                        804.30                 1.00                 8.89

                                       1325.00                 1.00                 8.89

                                       1496.00                 1.00                 8.89

                                       1509.00                 1.00                 8.89

                                       1715.00                 1.00                 8.89

                                       2544.00                 1.00                 8.91

                                       2927.00                 1.00                 8.91

                                       2957.00                 1.00                 8.91

                                       3039.00                 1.00                 8.91



                                                       PART5  LOCATION OF V ZONES

                                             STATION OF GUTTER          LOCATION OF ZONE

                                                      417.36               WINDWARD



                                                   PART6 NUMBERED A ZONES AND V ZONES

                                        STATION OF GUTTER  ELEVATION  ZONE DESIGNATION   FHF


                                               0.00          13.65

                                                                          V22  EL=14     120

                                              40.00          13.74

                                                                          V22  EL=14     120

                                              41.00          13.74

                                                                          V22  EL=14     120

                                             156.00          14.00

                                                                          V22  EL=14     120

                                             157.00          14.00

                                                                          V22  EL=14     120

                                             212.00          14.14

                                                                          V22  EL=14     120

                                             213.00          14.14

                                                                          V22  EL=14     120

                                             273.78          14.50

                                                                          V22  EL=15     120

                                             280.00          14.59

                                                                          V22  EL=15     120

                                             282.00          14.61

                                                                          V22  EL=15     120

                                             289.00          14.66

                                                                          V22  EL=15     120

                                             291.00          14.68

                                                                          V22  EL=15     120

                                             297.00          14.73

                                                                          V22  EL=15     120

                                             298.00          14.74

                                                                          V22  EL=15     120

                                             309.00          14.90

                                                                          V22  EL=15     120

                                             310.00          14.91

                                                                          V22  EL=15     120

                                             316.00          15.03

                                                                          V22  EL=15     120

                                             321.00          15.13

                                                                          V22  EL=15     120

                                             333.00          15.42

                                                                          V22  EL=15     120

                                             334.00          15.45

                                                                          V22  EL=15     120

                                             337.62          15.50

                                                                          V22  EL=16     120

                                             342.86          15.50

                                                                          V22  EL=15     120

                                             346.00          15.46

                                                                          V22  EL=15     120

                                             352.00          15.38

                                                                          V22  EL=15     120

                                             368.65          14.50

                                                                          V22  EL=14     120

                                             387.50          13.50

                                                                          V22  EL=13     120

                                             406.34          12.50

                                                                          V22  EL=12     120

                                             414.00          12.09

                                                                          V22  EL=12     120

                                             416.15          11.50

                                                                          V22  EL=11     120

                                             417.36          11.15

                                                                          A18  EL=11      90

                                             419.78          10.50

                                                                          A18  EL=10      90

                                             419.90          10.47

                                                                          A18  EL=10      90

                                             420.75           9.50

                                                                          A18  EL= 9      90

                                             421.00           9.22


                                             425.50           8.88

                                                                          A18  EL= 9      90

                                             457.20           8.89


                                             463.70           8.88

                                                                          A18  EL= 9      90

                                             486.30           8.89


                                             505.50           8.88

                                                                          A18  EL= 9      90

                                             507.80           8.89


                                             804.30           8.89

                                                                          A18  EL= 9      90

                                            1274.36           9.50

                                                                          A18  EL=10      90

                                            1314.00           9.53

                                                                          A18  EL=10      90

                                            1325.00           9.54

                                                                          A18  EL=10      90

                                            1411.00           9.61

                                                                          A18  EL=10      90

                                            1496.00           9.68

                                                                          A18  EL=10      90

                                            1508.00           9.69

                                                                          A18  EL=10      90

                                            1509.00           9.69

                                                                          A18  EL=10      90

                                            1687.00           9.82

                                                                          A18  EL=10      90

                                            1715.00           9.84

                                                                          A18  EL=10      90

                                            1764.00           9.87

                                                                          A18  EL=10      90

                                            2544.00          10.34

                                                                          A18  EL=10      90

                                            2664.00          10.40

                                                                          A18  EL=10      90

                                            2871.27          10.50

                                                                          A18  EL=11      90

                                            2927.00          10.53

                                                                          A18  EL=11      90

                                            2952.00          10.54

                                                                          A18  EL=11      90

                                            2957.00          10.54

                                                                          A18  EL=11      90

                                            3036.00          10.57

                                                                          A18  EL=11      90

                                            3039.00          10.58

                                                                          A18  EL=11      90

                                            3097.56          10.50

                                                                          A18  EL=10      90

                                            3108.96           9.50

                                                                          A18  EL= 9      90

                                            3115.60           8.92



                                                  ZONE TERMINATED AT END OF TRANSECT



                                                  PART 7   POSTSCRIPT NOTES


                         PS#  1   START(425365.8657,4849410.3126)                                              
                         PS#  2   END(424933.156,4850281.0358)                                                 
