 WAVE HEIGHT COMPUTATIONS FOR FLOOD INSURANCE STUDIES (WHAFIS VERSION 4.0G, 08_2007)
 Executed on: Thu Feb 20 14:57:37 2020
 Input file:  C:\FEMA-TransectAnalysis\LOMR-TransectAnalysis-Harpswell\3_whafis\whafis4\CM-141.dat                                            
 Output file: C:\FEMA-TransectAnalysis\LOMR-TransectAnalysis-Harpswell\3_whafis\whafis4\CM-141.out                                            



                                                              header                                                                
                                                     THIS IS A 100-YEAR CASE


                                       THE FOLLOWING NON-DEFAULT WIND SPEEDS ARE BEING USED
                                            WINDIF  56.14  WINDOF  56.14  WINDVH  60.00

                                                             PART1 INPUT

          IE      0.000    -22.314      1.000      1.000      8.764     27.928     15.086     56.140      0.117      0.000
          OF      2.000    -22.079      0.000      8.764      0.000      0.000      0.000      0.000      0.117      0.000
          OF      4.000    -21.844      0.000      8.764      0.000      0.000      0.000      0.000      0.117      0.000
          OF      6.000    -21.609      0.000      8.764      0.000      0.000      0.000      0.000      0.117      0.000
          OF      8.000    -21.374      0.000      8.764      0.000      0.000      0.000      0.000      0.118      0.000
          OF     10.000    -21.138      0.000      8.764      0.000      0.000      0.000      0.000      0.118      0.000
          OF     12.000    -20.903      0.000      8.765      0.000      0.000      0.000      0.000      0.117      0.000
          OF     14.000    -20.668      0.000      8.765      0.000      0.000      0.000      0.000      0.117      0.000
          OF     16.000    -20.433      0.000      8.765      0.000      0.000      0.000      0.000      0.117      0.000
          OF     18.000    -20.198      0.000      8.766      0.000      0.000      0.000      0.000      0.117      0.000
          OF     20.000    -19.963      0.000      8.766      0.000      0.000      0.000      0.000      0.117      0.000
          OF     22.000    -19.728      0.000      8.766      0.000      0.000      0.000      0.000      0.117      0.000
          OF     24.000    -19.493      0.000      8.766      0.000      0.000      0.000      0.000      0.117      0.000
          OF     26.000    -19.258      0.000      8.767      0.000      0.000      0.000      0.000      0.117      0.000
          OF     28.000    -19.023      0.000      8.767      0.000      0.000      0.000      0.000      0.117      0.000
          OF     30.000    -18.788      0.000      8.767      0.000      0.000      0.000      0.000      0.117      0.000
          OF     32.000    -18.553      0.000      8.768      0.000      0.000      0.000      0.000      0.117      0.000
          OF     34.000    -18.318      0.000      8.768      0.000      0.000      0.000      0.000      0.117      0.000
          OF     36.000    -18.083      0.000      8.768      0.000      0.000      0.000      0.000      0.117      0.000
          OF     38.000    -17.848      0.000      8.769      0.000      0.000      0.000      0.000      0.117      0.000
          OF     40.000    -17.613      0.000      8.769      0.000      0.000      0.000      0.000      0.117      0.000
          OF     42.000    -17.378      0.000      8.769      0.000      0.000      0.000      0.000      0.117      0.000
          OF     44.000    -17.143      0.000      8.769      0.000      0.000      0.000      0.000      0.117      0.000
          OF     46.000    -16.908      0.000      8.770      0.000      0.000      0.000      0.000      0.118      0.000
          OF     48.000    -16.672      0.000      8.770      0.000      0.000      0.000      0.000      0.118      0.000
          OF     50.000    -16.437      0.000      8.770      0.000      0.000      0.000      0.000      0.117      0.000
          OF     52.000    -16.202      0.000      8.771      0.000      0.000      0.000      0.000      0.117      0.000
          OF     54.000    -15.967      0.000      8.771      0.000      0.000      0.000      0.000      0.117      0.000
          OF     56.000    -15.732      0.000      8.771      0.000      0.000      0.000      0.000      0.116      0.000
          OF     58.000    -15.505      0.000      8.771      0.000      0.000      0.000      0.000      0.104      0.000
          OF     59.100    -15.411      0.000      8.766      0.000      0.000      0.000      0.000      0.090      0.000
          OF     62.300    -15.118      0.000      8.771      0.000      0.000      0.000      0.000      0.090      0.000
          OF     65.600    -14.825      0.000      8.777      0.000      0.000      0.000      0.000      0.089      0.000
          OF     68.900    -14.532      0.000      8.783      0.000      0.000      0.000      0.000      0.089      0.000
          OF     72.200    -14.239      0.000      8.789      0.000      0.000      0.000      0.000      0.076      0.000
          OF     75.500    -14.031      0.000      8.798      0.000      0.000      0.000      0.000      0.029      0.000
          OF     78.700    -14.051      0.000      8.811      0.000      0.000      0.000      0.000     -0.010      0.000
          OF     82.000    -14.094      0.000      8.824      0.000      0.000      0.000      0.000     -0.013      0.000
          OF     85.300    -14.138      0.000      8.836      0.000      0.000      0.000      0.000     -0.013      0.000
          OF     88.600    -14.181      0.000      8.848      0.000      0.000      0.000      0.000     -0.013      0.000
          OF     91.900    -14.225      0.000      8.859      0.000      0.000      0.000      0.000     -0.014      0.000
          OF     95.100    -14.269      0.000      8.870      0.000      0.000      0.000      0.000     -0.013      0.000
          OF     98.400    -14.312      0.000      8.880      0.000      0.000      0.000      0.000     -0.013      0.000
          OF    101.700    -14.356      0.000      8.891      0.000      0.000      0.000      0.000     -0.013      0.000
          OF    105.000    -14.399      0.000      8.901      0.000      0.000      0.000      0.000     -0.013      0.000
          OF    108.300    -14.443      0.000      8.911      0.000      0.000      0.000      0.000     -0.014      0.000
          OF    111.500    -14.487      0.000      8.921      0.000      0.000      0.000      0.000     -0.013      0.000
          OF    114.800    -14.530      0.000      8.929      0.000      0.000      0.000      0.000     -0.013      0.000
          OF    118.100    -14.574      0.000      8.939      0.000      0.000      0.000      0.000     -0.013      0.000
          OF    121.400    -14.617      0.000      8.949      0.000      0.000      0.000      0.000     -0.013      0.000
          OF    124.700    -14.661      0.000      8.958      0.000      0.000      0.000      0.000     -0.013      0.000
          OF    128.000    -14.705      0.000      8.966      0.000      0.000      0.000      0.000     -0.013      0.000
          OF    131.200    -14.748      0.000      8.975      0.000      0.000      0.000      0.000     -0.013      0.000
          OF    134.500    -14.792      0.000      8.983      0.000      0.000      0.000      0.000     -0.013      0.000
          OF    137.800    -14.835      0.000      8.990      0.000      0.000      0.000      0.000     -0.014      0.000
          OF    141.100    -14.888      0.000      8.997      0.000      0.000      0.000      0.000     -0.019      0.000
          OF    144.400    -14.957      0.000      9.005      0.000      0.000      0.000      0.000     -0.021      0.000
          OF    147.600    -15.026      0.000      9.012      0.000      0.000      0.000      0.000     -0.021      0.000
          OF    150.900    -15.095      0.000      9.018      0.000      0.000      0.000      0.000     -0.021      0.000
          OF    154.200    -15.164      0.000      9.024      0.000      0.000      0.000      0.000     -0.021      0.000
          OF    157.500    -15.233      0.000      9.031      0.000      0.000      0.000      0.000     -0.007      0.000
          OF    160.800    -15.212      0.000      9.035      0.000      0.000      0.000      0.000      0.022      0.000
          OF    164.000    -15.092      0.000      9.038      0.000      0.000      0.000      0.000      0.043      0.000
          OF    167.300    -14.931      0.000      9.041      0.000      0.000      0.000      0.000      0.049      0.000
          OF    170.600    -14.769      0.000      9.043      0.000      0.000      0.000      0.000      0.049      0.000
          OF    173.900    -14.608      0.000      9.046      0.000      0.000      0.000      0.000      0.049      0.000
          OF    177.200    -14.446      0.000      9.049      0.000      0.000      0.000      0.000      0.050      0.000
          OF    180.400    -14.285      0.000      9.052      0.000      0.000      0.000      0.000      0.050      0.000
          OF    183.700    -14.123      0.000      9.055      0.000      0.000      0.000      0.000      0.049      0.000
          OF    187.000    -13.962      0.000      9.058      0.000      0.000      0.000      0.000      0.049      0.000
          OF    190.300    -13.800      0.000      9.061      0.000      0.000      0.000      0.000      0.049      0.000
          OF    193.600    -13.639      0.000      9.065      0.000      0.000      0.000      0.000      0.050      0.000
          OF    196.800    -13.477      0.000      9.068      0.000      0.000      0.000      0.000      0.050      0.000
          OF    200.100    -13.316      0.000      9.072      0.000      0.000      0.000      0.000      0.049      0.000
          OF    203.400    -13.154      0.000      9.075      0.000      0.000      0.000      0.000      0.049      0.000
          OF    206.700    -12.993      0.000      9.079      0.000      0.000      0.000      0.000      0.049      0.000
          OF    210.000    -12.831      0.000      9.082      0.000      0.000      0.000      0.000      0.855      0.000
          OF    213.300     -7.351      0.000      8.976      0.000      0.000      0.000      0.000      1.318      0.000
          OF    216.500     -4.262      0.000      8.900      0.000      0.000      0.000      0.000      0.457      0.000
          OF    219.800     -4.382      0.000      8.969      0.000      0.000      0.000      0.000     -0.045      0.000
          OF    223.100     -4.559      0.000      9.036      0.000      0.000      0.000      0.000     -0.019      0.000
          OF    226.400     -4.505      0.000      9.085      0.000      0.000      0.000      0.000      0.031      0.000
          OF    229.700     -4.355      0.000      9.129      0.000      0.000      0.000      0.000      0.021      0.000
          OF    232.900     -4.366      0.000      9.174      0.000      0.000      0.000      0.000     -0.008      0.000
          OF    236.200     -4.407      0.000      9.213      0.000      0.000      0.000      0.000     -0.002      0.000
          OF    239.500     -4.382      0.000      9.252      0.000      0.000      0.000      0.000      0.001      0.000
          OF    242.800     -4.400      0.000      9.270      0.000      0.000      0.000      0.000     -0.007      0.000
          OF    246.100     -4.425      0.000      9.301      0.000      0.000      0.000      0.000     -0.006      0.000
          OF    249.300     -4.440      0.000      9.333      0.000      0.000      0.000      0.000      0.002      0.000
          OF    252.600     -4.415      0.000      9.362      0.000      0.000      0.000      0.000      0.006      0.000
          OF    255.900     -4.399      0.000      9.389      0.000      0.000      0.000      0.000      0.006      0.000
          OF    259.200     -4.376      0.000      9.413      0.000      0.000      0.000      0.000      0.010      0.000
          OF    262.500     -4.332      0.000      9.436      0.000      0.000      0.000      0.000      0.014      0.000
          OF    265.700     -4.282      0.000      9.457      0.000      0.000      0.000      0.000     -0.003      0.000
          OF    269.000     -4.352      0.000      9.479      0.000      0.000      0.000      0.000     -0.026      0.000
          OF    272.300     -4.454      0.000      9.500      0.000      0.000      0.000      0.000     -0.022      0.000
          OF    275.600     -4.495      0.000      9.517      0.000      0.000      0.000      0.000     -0.001      0.000
          OF    278.900     -4.458      0.000      9.532      0.000      0.000      0.000      0.000      0.015      0.000
          OF    282.200     -4.393      0.000      9.545      0.000      0.000      0.000      0.000      0.020      0.000
          OF    285.400     -4.328      0.000      9.558      0.000      0.000      0.000      0.000      0.019      0.000
          OF    288.700     -4.269      0.000      9.570      0.000      0.000      0.000      0.000      0.017      0.000
          OF    292.000     -4.216      0.000      9.582      0.000      0.000      0.000      0.000      0.004      0.000
          OF    295.300     -4.239      0.000      9.594      0.000      0.000      0.000      0.000      0.010      0.000
          OF    298.600     -4.148      0.000      9.604      0.000      0.000      0.000      0.000      0.031      0.000
          OF    301.800     -4.037      0.000      9.613      0.000      0.000      0.000      0.000      0.014      0.000
          OF    305.100     -4.057      0.000      9.625      0.000      0.000      0.000      0.000     -0.016      0.000
          OF    308.400     -4.142      0.000      9.636      0.000      0.000      0.000      0.000     -0.034      0.000
          OF    311.700     -4.285      0.000      9.648      0.000      0.000      0.000      0.000     -0.022      0.000
          OF    315.000     -4.290      0.000      9.656      0.000      0.000      0.000      0.000      0.021      0.000
          OF    318.200     -4.151      0.000      9.662      0.000      0.000      0.000      0.000      0.037      0.000
          OF    321.500     -4.049      0.000      9.669      0.000      0.000      0.000      0.000      0.028      0.000
          OF    324.800     -3.967      0.000      9.675      0.000      0.000      0.000      0.000      0.007      0.000
          OF    328.100     -3.999      0.000      9.683      0.000      0.000      0.000      0.000     -0.025      0.000
          OF    331.400     -4.133      0.000      9.692      0.000      0.000      0.000      0.000     -0.028      0.000
          OF    334.600     -4.181      0.000      9.700      0.000      0.000      0.000      0.000     -0.013      0.000
          OF    337.900     -4.218      0.000      9.707      0.000      0.000      0.000      0.000     -0.010      0.000
          OF    341.200     -4.246      0.000      9.713      0.000      0.000      0.000      0.000     -0.005      0.000
          OF    344.500     -4.254      0.000      9.718      0.000      0.000      0.000      0.000     -0.002      0.000
          OF    347.800     -4.260      0.000      9.724      0.000      0.000      0.000      0.000      0.005      0.000
          OF    351.000     -4.224      0.000      9.728      0.000      0.000      0.000      0.000      0.019      0.000
          OF    354.300     -4.140      0.000      9.732      0.000      0.000      0.000      0.000      0.021      0.000
          OF    357.600     -4.089      0.000      9.736      0.000      0.000      0.000      0.000      0.021      0.000
          OF    360.900     -4.003      0.000      9.740      0.000      0.000      0.000      0.000      0.002      0.000
          OF    364.200     -4.075      0.000      9.746      0.000      0.000      0.000      0.000      0.001      0.000
          OF    367.500     -4.000      0.000      9.749      0.000      0.000      0.000      0.000      0.017      0.000
          OF    370.700     -3.964      0.000      9.754      0.000      0.000      0.000      0.000      0.001      0.000
          OF    374.000     -3.996      0.000      9.759      0.000      0.000      0.000      0.000     -0.009      0.000
          OF    377.300     -4.027      0.000      9.763      0.000      0.000      0.000      0.000     -0.008      0.000
          OF    380.600     -4.050      0.000      9.768      0.000      0.000      0.000      0.000     -0.003      0.000
          OF    383.900     -4.045      0.000      9.771      0.000      0.000      0.000      0.000     -0.001      0.000
          OF    387.100     -4.054      0.000      9.775      0.000      0.000      0.000      0.000     -0.011      0.000
          OF    390.400     -4.115      0.000      9.780      0.000      0.000      0.000      0.000     -0.020      0.000
          OF    393.700     -4.184      0.000      9.784      0.000      0.000      0.000      0.000     -0.021      0.000
          OF    397.000     -4.252      0.000      9.788      0.000      0.000      0.000      0.000     -0.010      0.000
          OF    400.300     -4.251      0.000      9.791      0.000      0.000      0.000      0.000      0.029      0.000
          OF    403.500     -4.063      0.000      9.791      0.000      0.000      0.000      0.000      0.007      0.000
          OF    406.800     -4.202      0.000      9.796      0.000      0.000      0.000      0.000     -0.049      0.000
          OF    410.100     -4.384      0.000      9.801      0.000      0.000      0.000      0.000     -0.047      0.000
          OF    413.400     -4.514      0.000      9.805      0.000      0.000      0.000      0.000     -0.026      0.000
          OF    416.700     -4.554      0.000      9.807      0.000      0.000      0.000      0.000      0.005      0.000
          OF    419.900     -4.484      0.000      9.809      0.000      0.000      0.000      0.000      0.013      0.000
          OF    423.200     -4.472      0.000      9.811      0.000      0.000      0.000      0.000      0.002      0.000
          OF    426.500     -4.472      0.000      9.813      0.000      0.000      0.000      0.000     -0.002      0.000
          OF    429.800     -4.488      0.000      9.815      0.000      0.000      0.000      0.000     -0.005      0.000
          OF    433.100     -4.504      0.000      9.817      0.000      0.000      0.000      0.000     -0.005      0.000
          OF    436.400     -4.520      0.000      9.819      0.000      0.000      0.000      0.000     -0.005      0.000
          OF    439.600     -4.535      0.000      9.821      0.000      0.000      0.000      0.000      0.007      0.000
          OF    442.900     -4.473      0.000      9.822      0.000      0.000      0.000      0.000      0.018      0.000
          OF    446.200     -4.415      0.000      9.824      0.000      0.000      0.000      0.000      0.002      0.000
          OF    449.500     -4.460      0.000      9.826      0.000      0.000      0.000      0.000     -0.014      0.000
          OF    452.800     -4.505      0.000      9.828      0.000      0.000      0.000      0.000     -0.014      0.000
          OF    456.000     -4.550      0.000      9.830      0.000      0.000      0.000      0.000     -0.014      0.000
          OF    459.300     -4.595      0.000      9.832      0.000      0.000      0.000      0.000     -0.013      0.000
          OF    462.600     -4.635      0.000      9.834      0.000      0.000      0.000      0.000     -0.009      0.000
          OF    465.900     -4.653      0.000      9.836      0.000      0.000      0.000      0.000     -0.004      0.000
          OF    469.200     -4.662      0.000      9.837      0.000      0.000      0.000      0.000     -0.005      0.000
          OF    472.400     -4.685      0.000      9.839      0.000      0.000      0.000      0.000     -0.004      0.000
          OF    475.700     -4.686      0.000      9.840      0.000      0.000      0.000      0.000      0.000      0.000
          OF    479.000     -4.687      0.000      9.841      0.000      0.000      0.000      0.000      0.001      0.000
          OF    482.300     -4.680      0.000      9.843      0.000      0.000      0.000      0.000      0.009      0.000
          OF    485.600     -4.629      0.000      9.843      0.000      0.000      0.000      0.000      0.016      0.000
          OF    488.800     -4.577      0.000      9.844      0.000      0.000      0.000      0.000      0.022      0.000
          OF    492.100     -4.486      0.000      9.845      0.000      0.000      0.000      0.000      0.031      0.000
          OF    495.400     -4.375      0.000      9.845      0.000      0.000      0.000      0.000      0.032      0.000
          OF    498.700     -4.279      0.000      9.845      0.000      0.000      0.000      0.000      0.018      0.000
          OF    502.000     -4.258      0.000      9.847      0.000      0.000      0.000      0.000      0.004      0.000
          OF    505.200     -4.256      0.000      9.848      0.000      0.000      0.000      0.000     -0.006      0.000
          OF    508.500     -4.297      0.000      9.850      0.000      0.000      0.000      0.000     -0.014      0.000
          OF    511.800     -4.347      0.000      9.852      0.000      0.000      0.000      0.000     -0.018      0.000
          OF    515.100     -4.416      0.000      9.854      0.000      0.000      0.000      0.000     -0.025      0.000
          OF    518.400     -4.515      0.000      9.856      0.000      0.000      0.000      0.000     -0.030      0.000
          OF    521.700     -4.617      0.000      9.858      0.000      0.000      0.000      0.000      0.009      0.000
          OF    524.900     -4.457      0.000      9.857      0.000      0.000      0.000      0.000      0.033      0.000
          OF    528.200     -4.403      0.000      9.858      0.000      0.000      0.000      0.000      0.008      0.000
          OF    531.500     -4.406      0.000      9.859      0.000      0.000      0.000      0.000     -0.001      0.000
          OF    534.800     -4.410      0.000      9.860      0.000      0.000      0.000      0.000     -0.001      0.000
          OF    538.100     -4.413      0.000      9.861      0.000      0.000      0.000      0.000     -0.001      0.000
          OF    541.300     -4.419      0.000      9.862      0.000      0.000      0.000      0.000     -0.003      0.000
          OF    544.600     -4.434      0.000      9.863      0.000      0.000      0.000      0.000     -0.005      0.000
          OF    547.900     -4.452      0.000      9.865      0.000      0.000      0.000      0.000      0.003      0.000
          OF    551.200     -4.415      0.000      9.865      0.000      0.000      0.000      0.000     -0.002      0.000
          OF    554.500     -4.462      0.000      9.867      0.000      0.000      0.000      0.000      0.007      0.000
          OF    557.700     -4.370      0.000      9.867      0.000      0.000      0.000      0.000      0.028      0.000
          OF    561.000     -4.278      0.000      9.867      0.000      0.000      0.000      0.000      0.028      0.000
          OF    564.300     -4.186      0.000      9.867      0.000      0.000      0.000      0.000      0.028      0.000
          OF    567.600     -4.094      0.000      9.868      0.000      0.000      0.000      0.000      0.015      0.000
          OF    570.900     -4.088      0.000      9.869      0.000      0.000      0.000      0.000     -0.002      0.000
          OF    574.100     -4.107      0.000      9.870      0.000      0.000      0.000      0.000     -0.006      0.000
          OF    577.400     -4.126      0.000      9.871      0.000      0.000      0.000      0.000     -0.006      0.000
          OF    580.700     -4.144      0.000      9.872      0.000      0.000      0.000      0.000     -0.006      0.000
          OF    584.000     -4.163      0.000      9.874      0.000      0.000      0.000      0.000     -0.006      0.000
          OF    587.300     -4.181      0.000      9.875      0.000      0.000      0.000      0.000     -0.006      0.000
          OF    590.500     -4.200      0.000      9.876      0.000      0.000      0.000      0.000     -0.006      0.000
          OF    593.800     -4.219      0.000      9.877      0.000      0.000      0.000      0.000     -0.006      0.000
          OF    597.100     -4.237      0.000      9.878      0.000      0.000      0.000      0.000     -0.002      0.000
          OF    600.400     -4.235      0.000      9.879      0.000      0.000      0.000      0.000      0.005      0.000
          OF    603.700     -4.201      0.000      9.879      0.000      0.000      0.000      0.000      0.010      0.000
          OF    607.000     -4.168      0.000      9.880      0.000      0.000      0.000      0.000      0.010      0.000
          OF    610.200     -4.134      0.000      9.881      0.000      0.000      0.000      0.000      0.010      0.000
          OF    613.500     -4.101      0.000      9.881      0.000      0.000      0.000      0.000      0.008      0.000
          OF    616.800     -4.083      0.000      9.882      0.000      0.000      0.000      0.000     -0.001      0.000
          OF    620.100     -4.108      0.000      9.883      0.000      0.000      0.000      0.000     -0.008      0.000
          OF    623.400     -4.135      0.000      9.884      0.000      0.000      0.000      0.000     -0.012      0.000
          OF    626.600     -4.184      0.000      9.886      0.000      0.000      0.000      0.000     -0.015      0.000
          OF    629.900     -4.236      0.000      9.887      0.000      0.000      0.000      0.000     -0.016      0.000
          OF    633.200     -4.288      0.000      9.888      0.000      0.000      0.000      0.000     -0.016      0.000
          OF    636.500     -4.340      0.000      9.889      0.000      0.000      0.000      0.000     -0.016      0.000
          OF    639.800     -4.392      0.000      9.890      0.000      0.000      0.000      0.000      0.004      0.000
          OF    643.000     -4.316      0.000      9.890      0.000      0.000      0.000      0.000      0.064      0.000
          OF    646.300     -3.977      0.000      9.888      0.000      0.000      0.000      0.000      0.077      0.000
          OF    649.600     -3.808      0.000      9.887      0.000      0.000      0.000      0.000      0.018      0.000
          OF    652.900     -3.860      0.000      9.889      0.000      0.000      0.000      0.000     -0.018      0.000
          OF    656.200     -3.923      0.000      9.890      0.000      0.000      0.000      0.000     -0.020      0.000
          OF    659.400     -3.987      0.000      9.892      0.000      0.000      0.000      0.000     -0.020      0.000
          OF    662.700     -4.050      0.000      9.893      0.000      0.000      0.000      0.000     -0.019      0.000
          OF    666.000     -4.114      0.000      9.894      0.000      0.000      0.000      0.000     -0.018      0.000
          OF    669.300     -4.171      0.000      9.895      0.000      0.000      0.000      0.000      0.006      0.000
          OF    672.600     -4.074      0.000      9.895      0.000      0.000      0.000      0.000      0.033      0.000
          OF    675.900     -3.951      0.000      9.895      0.000      0.000      0.000      0.000      0.011      0.000
          OF    679.100     -4.002      0.000      9.896      0.000      0.000      0.000      0.000     -0.010      0.000
          OF    682.400     -4.014      0.000      9.897      0.000      0.000      0.000      0.000     -0.003      0.000
          OF    685.700     -4.022      0.000      9.898      0.000      0.000      0.000      0.000     -0.003      0.000
          OF    689.000     -4.031      0.000      9.898      0.000      0.000      0.000      0.000     -0.003      0.000
          OF    692.300     -4.040      0.000      9.899      0.000      0.000      0.000      0.000     -0.003      0.000
          OF    695.500     -4.048      0.000      9.900      0.000      0.000      0.000      0.000     -0.003      0.000
          OF    698.800     -4.056      0.000      9.901      0.000      0.000      0.000      0.000     -0.003      0.000
          OF    702.100     -4.065      0.000      9.901      0.000      0.000      0.000      0.000     -0.003      0.000
          OF    705.400     -4.074      0.000      9.902      0.000      0.000      0.000      0.000     -0.003      0.000
          OF    708.700     -4.082      0.000      9.903      0.000      0.000      0.000      0.000     -0.003      0.000
          OF    711.900     -4.090      0.000      9.903      0.000      0.000      0.000      0.000     -0.002      0.000
          OF    715.200     -4.094      0.000      9.904      0.000      0.000      0.000      0.000     -0.001      0.000
          OF    718.500     -4.095      0.000      9.905      0.000      0.000      0.000      0.000     -0.001      0.000
          OF    721.800     -4.099      0.000      9.905      0.000      0.000      0.000      0.000      0.012      0.000
          OF    725.100     -4.018      0.000      9.905      0.000      0.000      0.000      0.000      0.035      0.000
          OF    728.300     -3.870      0.000      9.904      0.000      0.000      0.000      0.000      0.003      0.000
          OF    731.600     -3.999      0.000      9.906      0.000      0.000      0.000      0.000     -0.043      0.000
          OF    734.900     -4.155      0.000      9.908      0.000      0.000      0.000      0.000     -0.055      0.000
          OF    738.200     -4.364      0.000      9.910      0.000      0.000      0.000      0.000     -0.038      0.000
          OF    741.500     -4.409      0.000      9.910      0.000      0.000      0.000      0.000      0.031      0.000
          OF    744.700     -4.160      0.000      9.909      0.000      0.000      0.000      0.000      0.035      0.000
          OF    748.000     -4.184      0.000      9.910      0.000      0.000      0.000      0.000     -0.012      0.000
          OF    751.300     -4.238      0.000      9.911      0.000      0.000      0.000      0.000     -0.027      0.000
          OF    754.600     -4.360      0.000      9.912      0.000      0.000      0.000      0.000     -0.038      0.000
          OF    757.900     -4.485      0.000      9.913      0.000      0.000      0.000      0.000     -0.005      0.000
          OF    761.200     -4.396      0.000      9.913      0.000      0.000      0.000      0.000      0.044      0.000
          OF    764.400     -4.200      0.000      9.912      0.000      0.000      0.000      0.000      0.046      0.000
          OF    767.700     -4.094      0.000      9.912      0.000      0.000      0.000      0.000      0.009      0.000
          OF    771.000     -4.137      0.000      9.913      0.000      0.000      0.000      0.000     -0.046      0.000
          OF    774.300     -4.396      0.000      9.915      0.000      0.000      0.000      0.000     -0.038      0.000
          OF    777.600     -4.388      0.000      9.915      0.000      0.000      0.000      0.000      0.029      0.000
          OF    780.800     -4.208      0.000      9.914      0.000      0.000      0.000      0.000      0.037      0.000
          OF    784.100     -4.145      0.000      9.914      0.000      0.000      0.000      0.000      0.002      0.000
          OF    787.400     -4.192      0.000      9.915      0.000      0.000      0.000      0.000     -0.033      0.000
          OF    790.700     -4.363      0.000      9.917      0.000      0.000      0.000      0.000     -0.026      0.000
          OF    794.000     -4.363      0.000      9.917      0.000      0.000      0.000      0.000      0.030      0.000
          OF    797.200     -4.167      0.000      9.916      0.000      0.000      0.000      0.000      0.032      0.000
          OF    800.500     -4.156      0.000      9.917      0.000      0.000      0.000      0.000     -0.011      0.000
          OF    803.800     -4.241      0.000      9.917      0.000      0.000      0.000      0.000     -0.014      0.000
          OF    807.100     -4.247      0.000      9.918      0.000      0.000      0.000      0.000      0.008      0.000
          OF    810.400     -4.190      0.000      9.918      0.000      0.000      0.000      0.000      0.011      0.000
          OF    813.600     -4.174      0.000      9.918      0.000      0.000      0.000      0.000      0.025      0.000
          OF    816.900     -4.030      0.000      9.918      0.000      0.000      0.000      0.000      0.056      0.000
          OF    820.200     -3.807      0.000      9.916      0.000      0.000      0.000      0.000      0.053      0.000
          OF    823.500     -3.678      0.000      9.916      0.000      0.000      0.000      0.000      0.051      0.000
          OF    826.800     -3.471      0.000      9.915      0.000      0.000      0.000      0.000      0.054      0.000
          OF    830.100     -3.323      0.000      9.914      0.000      0.000      0.000      0.000      0.029      0.000
          OF    833.300     -3.281      0.000      9.915      0.000      0.000      0.000      0.000      0.006      0.000
          OF    836.600     -3.285      0.000      9.916      0.000      0.000      0.000      0.000     -0.008      0.000
          OF    839.900     -3.333      0.000      9.917      0.000      0.000      0.000      0.000      0.003      0.000
          OF    843.200     -3.266      0.000      9.917      0.000      0.000      0.000      0.000      0.032      0.000
          OF    846.500     -3.121      0.000      9.917      0.000      0.000      0.000      0.000      0.030      0.000
          OF    849.700     -3.073      0.000      9.917      0.000      0.000      0.000      0.000      0.002      0.000
          OF    853.000     -3.105      0.000      9.918      0.000      0.000      0.000      0.000     -0.006      0.000
          OF    856.300     -3.110      0.000      9.919      0.000      0.000      0.000      0.000      0.004      0.000
          OF    859.600     -3.078      0.000      9.920      0.000      0.000      0.000      0.000     -0.016      0.000
          OF    862.900     -3.216      0.000      9.922      0.000      0.000      0.000      0.000     -0.048      0.000
          OF    866.100     -3.389      0.000      9.924      0.000      0.000      0.000      0.000     -0.010      0.000
          OF    869.400     -3.280      0.000      9.923      0.000      0.000      0.000      0.000      0.050      0.000
          OF    872.700     -3.060      0.000      9.922      0.000      0.000      0.000      0.000      0.135      0.000
          OF    876.000     -2.391      0.000      9.917      0.000      0.000      0.000      0.000      0.122      0.000
          OF    879.300     -2.253      0.000      9.917      0.000      0.000      0.000      0.000      0.046      0.000
          OF    882.500     -2.091      0.000      9.917      0.000      0.000      0.000      0.000      0.047      0.000
          OF    885.800     -1.950      0.000      9.917      0.000      0.000      0.000      0.000      0.047      0.000
          OF    889.100     -1.780      0.000      9.917      0.000      0.000      0.000      0.000      0.062      0.000
          OF    892.400     -1.544      0.000      9.917      0.000      0.000      0.000      0.000      0.065      0.000
          OF    895.700     -1.353      0.000      9.917      0.000      0.000      0.000      0.000      0.079      0.000
          OF    898.900     -1.031      0.000      9.916      0.000      0.000      0.000      0.000      0.105      0.000
          OF    902.200     -0.674      0.000      9.914      0.000      0.000      0.000      0.000      0.071      0.000
          OF    905.500     -0.561      0.000      9.916      0.000      0.000      0.000      0.000      0.031      0.000
          OF    908.800     -0.467      0.000      9.918      0.000      0.000      0.000      0.000      0.056      0.000
          OF    912.100     -0.189      0.000      9.919      0.000      0.000      0.000      0.000      0.093      0.000
          IF    915.400      0.149      0.000      9.918      0.000      0.000      0.000      0.000      0.111      0.000
          IF    918.600      0.532      0.000      9.918      0.000      0.000      0.000      0.000      0.089      0.000
          IF    921.900      0.727      0.000      9.921      0.000      0.000      0.000      0.000      0.049      0.000
          IF    925.200      0.854      0.000      9.925      0.000      0.000      0.000      0.000      0.087      0.000
          IF    928.500      1.302      0.000      9.925      0.000      0.000      0.000      0.000      0.162      0.000
          IF    931.800      1.923      0.000      9.923      0.000      0.000      0.000      0.000      0.194      0.000
          IF    935.000      2.562      0.000      9.921      0.000      0.000      0.000      0.000      0.159      0.000
          IF    938.300      2.954      0.000      9.929      0.000      0.000      0.000      0.000      0.117      0.000
          IF    941.600      3.335      0.000      9.938      0.000      0.000      0.000      0.000      0.145      0.000
          IF    944.900      3.911      0.000      9.946      0.000      0.000      0.000      0.000      0.190      0.000
          IF    948.200      4.589      0.000      9.955      0.000      0.000      0.000      0.000      0.208      0.000
          IF    951.400      5.262      0.000      9.970      0.000      0.000      0.000      0.000      0.207      0.000
          IF    954.700      5.933      0.000     10.013      0.000      0.000      0.000      0.000      0.217      0.000
          IF    958.000      6.697      0.000     10.119      0.000      0.000      0.000      0.000      0.197      0.000
          IF    961.300      7.236      0.000     10.223      0.000      0.000      0.000      0.000      0.097      0.000
          IF    964.600      7.340      0.000     10.312      0.000      0.000      0.000      0.000      0.095      0.000
          IF    967.800      7.853      0.000     10.372      0.000      0.000      0.000      0.000      0.192      0.000
          IF    971.100      8.587      0.000     10.570      0.000      0.000      0.000      0.000      0.197      0.000
          IF    974.000      9.075      0.000     10.570      0.000      0.000      0.000      0.000      0.149      0.000
          IF    976.000      9.316      0.000     10.570      0.000      0.000      0.000      0.000      0.116      0.000
          IF    978.000      9.538      0.000     10.570      0.000      0.000      0.000      0.000      0.110      0.000
          IF    980.000      9.757      0.000     10.570      0.000      0.000      0.000      0.000      0.126      0.000
          IF    982.000     10.042      0.000     10.570      0.000      0.000      0.000      0.000      0.179      0.000
          IF    984.000     10.474      0.000     10.570      0.000      0.000      0.000      0.000      0.220      0.000
          IF    984.400     10.570      0.000     10.570      0.000      0.000      0.000      0.000      0.240      0.000
          ET      0.000      0.000      0.000      0.000      0.000      0.000      0.000      0.000      0.000      0.000
1


            END        END      FETCH SURGE ELEV SURGE ELEV    INITIAL    INITIAL                BOTTOM    AVERAGE
        STATION  ELEVATION     LENGTH    10-YEAR   100-YEAR WAVE HEIGHT  W. PERIOD                SLOPE    A-ZONES
  IE      0.000    -22.314      1.000      1.000      8.764     27.928     15.086     56.140      0.117      0.000


            END        END  NEW SURGE  NEW SURGE                                                 BOTTOM    AVERAGE
        STATION  ELEVATION    10-YEAR   100-YEAR                                                  SLOPE    A-ZONES
  OF      2.000    -22.079      0.000      8.764      0.000      0.000      0.000      0.000      0.117      0.000


            END        END  NEW SURGE  NEW SURGE                                                 BOTTOM    AVERAGE
        STATION  ELEVATION    10-YEAR   100-YEAR                                                  SLOPE    A-ZONES
  OF      4.000    -21.844      0.000      8.764      0.000      0.000      0.000      0.000      0.117      0.000


            END        END  NEW SURGE  NEW SURGE                                                 BOTTOM    AVERAGE
        STATION  ELEVATION    10-YEAR   100-YEAR                                                  SLOPE    A-ZONES
  OF      6.000    -21.609      0.000      8.764      0.000      0.000      0.000      0.000      0.117      0.000


            END        END  NEW SURGE  NEW SURGE                                                 BOTTOM    AVERAGE
        STATION  ELEVATION    10-YEAR   100-YEAR                                                  SLOPE    A-ZONES
  OF      8.000    -21.374      0.000      8.764      0.000      0.000      0.000      0.000      0.118      0.000


            END        END  NEW SURGE  NEW SURGE                                                 BOTTOM    AVERAGE
        STATION  ELEVATION    10-YEAR   100-YEAR                                                  SLOPE    A-ZONES
  OF     10.000    -21.138      0.000      8.764      0.000      0.000      0.000      0.000      0.118      0.000


            END        END  NEW SURGE  NEW SURGE                                                 BOTTOM    AVERAGE
        STATION  ELEVATION    10-YEAR   100-YEAR                                                  SLOPE    A-ZONES
  OF     12.000    -20.903      0.000      8.765      0.000      0.000      0.000      0.000      0.117      0.000


            END        END  NEW SURGE  NEW SURGE                                                 BOTTOM    AVERAGE
        STATION  ELEVATION    10-YEAR   100-YEAR                                                  SLOPE    A-ZONES
  OF     14.000    -20.668      0.000      8.765      0.000      0.000      0.000      0.000      0.117      0.000


            END        END  NEW SURGE  NEW SURGE                                                 BOTTOM    AVERAGE
        STATION  ELEVATION    10-YEAR   100-YEAR                                                  SLOPE    A-ZONES
  OF     16.000    -20.433      0.000      8.765      0.000      0.000      0.000      0.000      0.117      0.000


            END        END  NEW SURGE  NEW SURGE                                                 BOTTOM    AVERAGE
        STATION  ELEVATION    10-YEAR   100-YEAR                                                  SLOPE    A-ZONES
  OF     18.000    -20.198      0.000      8.766      0.000      0.000      0.000      0.000      0.117      0.000


            END        END  NEW SURGE  NEW SURGE                                                 BOTTOM    AVERAGE
        STATION  ELEVATION    10-YEAR   100-YEAR                                                  SLOPE    A-ZONES
  OF     20.000    -19.963      0.000      8.766      0.000      0.000      0.000      0.000      0.117      0.000


            END        END  NEW SURGE  NEW SURGE                                                 BOTTOM    AVERAGE
        STATION  ELEVATION    10-YEAR   100-YEAR                                                  SLOPE    A-ZONES
  OF     22.000    -19.728      0.000      8.766      0.000      0.000      0.000      0.000      0.117      0.000


            END        END  NEW SURGE  NEW SURGE                                                 BOTTOM    AVERAGE
        STATION  ELEVATION    10-YEAR   100-YEAR                                                  SLOPE    A-ZONES
  OF     24.000    -19.493      0.000      8.766      0.000      0.000      0.000      0.000      0.117      0.000


            END        END  NEW SURGE  NEW SURGE                                                 BOTTOM    AVERAGE
        STATION  ELEVATION    10-YEAR   100-YEAR                                                  SLOPE    A-ZONES
  OF     26.000    -19.258      0.000      8.767      0.000      0.000      0.000      0.000      0.117      0.000


            END        END  NEW SURGE  NEW SURGE                                                 BOTTOM    AVERAGE
        STATION  ELEVATION    10-YEAR   100-YEAR                                                  SLOPE    A-ZONES
  OF     28.000    -19.023      0.000      8.767      0.000      0.000      0.000      0.000      0.117      0.000


            END        END  NEW SURGE  NEW SURGE                                                 BOTTOM    AVERAGE
        STATION  ELEVATION    10-YEAR   100-YEAR                                                  SLOPE    A-ZONES
  OF     30.000    -18.788      0.000      8.767      0.000      0.000      0.000      0.000      0.117      0.000


            END        END  NEW SURGE  NEW SURGE                                                 BOTTOM    AVERAGE
        STATION  ELEVATION    10-YEAR   100-YEAR                                                  SLOPE    A-ZONES
  OF     32.000    -18.553      0.000      8.768      0.000      0.000      0.000      0.000      0.117      0.000


            END        END  NEW SURGE  NEW SURGE                                                 BOTTOM    AVERAGE
        STATION  ELEVATION    10-YEAR   100-YEAR                                                  SLOPE    A-ZONES
  OF     34.000    -18.318      0.000      8.768      0.000      0.000      0.000      0.000      0.117      0.000


            END        END  NEW SURGE  NEW SURGE                                                 BOTTOM    AVERAGE
        STATION  ELEVATION    10-YEAR   100-YEAR                                                  SLOPE    A-ZONES
  OF     36.000    -18.083      0.000      8.768      0.000      0.000      0.000      0.000      0.117      0.000


            END        END  NEW SURGE  NEW SURGE                                                 BOTTOM    AVERAGE
        STATION  ELEVATION    10-YEAR   100-YEAR                                                  SLOPE    A-ZONES
  OF     38.000    -17.848      0.000      8.769      0.000      0.000      0.000      0.000      0.117      0.000


            END        END  NEW SURGE  NEW SURGE                                                 BOTTOM    AVERAGE
        STATION  ELEVATION    10-YEAR   100-YEAR                                                  SLOPE    A-ZONES
  OF     40.000    -17.613      0.000      8.769      0.000      0.000      0.000      0.000      0.117      0.000


            END        END  NEW SURGE  NEW SURGE                                                 BOTTOM    AVERAGE
        STATION  ELEVATION    10-YEAR   100-YEAR                                                  SLOPE    A-ZONES
  OF     42.000    -17.378      0.000      8.769      0.000      0.000      0.000      0.000      0.117      0.000


            END        END  NEW SURGE  NEW SURGE                                                 BOTTOM    AVERAGE
        STATION  ELEVATION    10-YEAR   100-YEAR                                                  SLOPE    A-ZONES
  OF     44.000    -17.143      0.000      8.769      0.000      0.000      0.000      0.000      0.117      0.000


            END        END  NEW SURGE  NEW SURGE                                                 BOTTOM    AVERAGE
        STATION  ELEVATION    10-YEAR   100-YEAR                                                  SLOPE    A-ZONES
  OF     46.000    -16.908      0.000      8.770      0.000      0.000      0.000      0.000      0.118      0.000


            END        END  NEW SURGE  NEW SURGE                                                 BOTTOM    AVERAGE
        STATION  ELEVATION    10-YEAR   100-YEAR                                                  SLOPE    A-ZONES
  OF     48.000    -16.672      0.000      8.770      0.000      0.000      0.000      0.000      0.118      0.000


            END        END  NEW SURGE  NEW SURGE                                                 BOTTOM    AVERAGE
        STATION  ELEVATION    10-YEAR   100-YEAR                                                  SLOPE    A-ZONES
  OF     50.000    -16.437      0.000      8.770      0.000      0.000      0.000      0.000      0.117      0.000


            END        END  NEW SURGE  NEW SURGE                                                 BOTTOM    AVERAGE
        STATION  ELEVATION    10-YEAR   100-YEAR                                                  SLOPE    A-ZONES
  OF     52.000    -16.202      0.000      8.771      0.000      0.000      0.000      0.000      0.117      0.000


            END        END  NEW SURGE  NEW SURGE                                                 BOTTOM    AVERAGE
        STATION  ELEVATION    10-YEAR   100-YEAR                                                  SLOPE    A-ZONES
  OF     54.000    -15.967      0.000      8.771      0.000      0.000      0.000      0.000      0.117      0.000


            END        END  NEW SURGE  NEW SURGE                                                 BOTTOM    AVERAGE
        STATION  ELEVATION    10-YEAR   100-YEAR                                                  SLOPE    A-ZONES
  OF     56.000    -15.732      0.000      8.771      0.000      0.000      0.000      0.000      0.116      0.000


            END        END  NEW SURGE  NEW SURGE                                                 BOTTOM    AVERAGE
        STATION  ELEVATION    10-YEAR   100-YEAR                                                  SLOPE    A-ZONES
  OF     58.000    -15.505      0.000      8.771      0.000      0.000      0.000      0.000      0.104      0.000


            END        END  NEW SURGE  NEW SURGE                                                 BOTTOM    AVERAGE
        STATION  ELEVATION    10-YEAR   100-YEAR                                                  SLOPE    A-ZONES
  OF     59.100    -15.411      0.000      8.766      0.000      0.000      0.000      0.000      0.090      0.000


            END        END  NEW SURGE  NEW SURGE                                                 BOTTOM    AVERAGE
        STATION  ELEVATION    10-YEAR   100-YEAR                                                  SLOPE    A-ZONES
  OF     62.300    -15.118      0.000      8.771      0.000      0.000      0.000      0.000      0.090      0.000


            END        END  NEW SURGE  NEW SURGE                                                 BOTTOM    AVERAGE
        STATION  ELEVATION    10-YEAR   100-YEAR                                                  SLOPE    A-ZONES
  OF     65.600    -14.825      0.000      8.777      0.000      0.000      0.000      0.000      0.089      0.000


            END        END  NEW SURGE  NEW SURGE                                                 BOTTOM    AVERAGE
        STATION  ELEVATION    10-YEAR   100-YEAR                                                  SLOPE    A-ZONES
  OF     68.900    -14.532      0.000      8.783      0.000      0.000      0.000      0.000      0.089      0.000


            END        END  NEW SURGE  NEW SURGE                                                 BOTTOM    AVERAGE
        STATION  ELEVATION    10-YEAR   100-YEAR                                                  SLOPE    A-ZONES
  OF     72.200    -14.239      0.000      8.789      0.000      0.000      0.000      0.000      0.076      0.000


            END        END  NEW SURGE  NEW SURGE                                                 BOTTOM    AVERAGE
        STATION  ELEVATION    10-YEAR   100-YEAR                                                  SLOPE    A-ZONES
  OF     75.500    -14.031      0.000      8.798      0.000      0.000      0.000      0.000      0.029      0.000


            END        END  NEW SURGE  NEW SURGE                                                 BOTTOM    AVERAGE
        STATION  ELEVATION    10-YEAR   100-YEAR                                                  SLOPE    A-ZONES
  OF     78.700    -14.051      0.000      8.811      0.000      0.000      0.000      0.000     -0.010      0.000


            END        END  NEW SURGE  NEW SURGE                                                 BOTTOM    AVERAGE
        STATION  ELEVATION    10-YEAR   100-YEAR                                                  SLOPE    A-ZONES
  OF     82.000    -14.094      0.000      8.824      0.000      0.000      0.000      0.000     -0.013      0.000


            END        END  NEW SURGE  NEW SURGE                                                 BOTTOM    AVERAGE
        STATION  ELEVATION    10-YEAR   100-YEAR                                                  SLOPE    A-ZONES
  OF     85.300    -14.138      0.000      8.836      0.000      0.000      0.000      0.000     -0.013      0.000


            END        END  NEW SURGE  NEW SURGE                                                 BOTTOM    AVERAGE
        STATION  ELEVATION    10-YEAR   100-YEAR                                                  SLOPE    A-ZONES
  OF     88.600    -14.181      0.000      8.848      0.000      0.000      0.000      0.000     -0.013      0.000


            END        END  NEW SURGE  NEW SURGE                                                 BOTTOM    AVERAGE
        STATION  ELEVATION    10-YEAR   100-YEAR                                                  SLOPE    A-ZONES
  OF     91.900    -14.225      0.000      8.859      0.000      0.000      0.000      0.000     -0.014      0.000


            END        END  NEW SURGE  NEW SURGE                                                 BOTTOM    AVERAGE
        STATION  ELEVATION    10-YEAR   100-YEAR                                                  SLOPE    A-ZONES
  OF     95.100    -14.269      0.000      8.870      0.000      0.000      0.000      0.000     -0.013      0.000


            END        END  NEW SURGE  NEW SURGE                                                 BOTTOM    AVERAGE
        STATION  ELEVATION    10-YEAR   100-YEAR                                                  SLOPE    A-ZONES
  OF     98.400    -14.312      0.000      8.880      0.000      0.000      0.000      0.000     -0.013      0.000


            END        END  NEW SURGE  NEW SURGE                                                 BOTTOM    AVERAGE
        STATION  ELEVATION    10-YEAR   100-YEAR                                                  SLOPE    A-ZONES
  OF    101.700    -14.356      0.000      8.891      0.000      0.000      0.000      0.000     -0.013      0.000


            END        END  NEW SURGE  NEW SURGE                                                 BOTTOM    AVERAGE
        STATION  ELEVATION    10-YEAR   100-YEAR                                                  SLOPE    A-ZONES
  OF    105.000    -14.399      0.000      8.901      0.000      0.000      0.000      0.000     -0.013      0.000


            END        END  NEW SURGE  NEW SURGE                                                 BOTTOM    AVERAGE
        STATION  ELEVATION    10-YEAR   100-YEAR                                                  SLOPE    A-ZONES
  OF    108.300    -14.443      0.000      8.911      0.000      0.000      0.000      0.000     -0.014      0.000


            END        END  NEW SURGE  NEW SURGE                                                 BOTTOM    AVERAGE
        STATION  ELEVATION    10-YEAR   100-YEAR                                                  SLOPE    A-ZONES
  OF    111.500    -14.487      0.000      8.921      0.000      0.000      0.000      0.000     -0.013      0.000


            END        END  NEW SURGE  NEW SURGE                                                 BOTTOM    AVERAGE
        STATION  ELEVATION    10-YEAR   100-YEAR                                                  SLOPE    A-ZONES
  OF    114.800    -14.530      0.000      8.929      0.000      0.000      0.000      0.000     -0.013      0.000


            END        END  NEW SURGE  NEW SURGE                                                 BOTTOM    AVERAGE
        STATION  ELEVATION    10-YEAR   100-YEAR                                                  SLOPE    A-ZONES
  OF    118.100    -14.574      0.000      8.939      0.000      0.000      0.000      0.000     -0.013      0.000


            END        END  NEW SURGE  NEW SURGE                                                 BOTTOM    AVERAGE
        STATION  ELEVATION    10-YEAR   100-YEAR                                                  SLOPE    A-ZONES
  OF    121.400    -14.617      0.000      8.949      0.000      0.000      0.000      0.000     -0.013      0.000


            END        END  NEW SURGE  NEW SURGE                                                 BOTTOM    AVERAGE
        STATION  ELEVATION    10-YEAR   100-YEAR                                                  SLOPE    A-ZONES
  OF    124.700    -14.661      0.000      8.958      0.000      0.000      0.000      0.000     -0.013      0.000


            END        END  NEW SURGE  NEW SURGE                                                 BOTTOM    AVERAGE
        STATION  ELEVATION    10-YEAR   100-YEAR                                                  SLOPE    A-ZONES
  OF    128.000    -14.705      0.000      8.966      0.000      0.000      0.000      0.000     -0.013      0.000


            END        END  NEW SURGE  NEW SURGE                                                 BOTTOM    AVERAGE
        STATION  ELEVATION    10-YEAR   100-YEAR                                                  SLOPE    A-ZONES
  OF    131.200    -14.748      0.000      8.975      0.000      0.000      0.000      0.000     -0.013      0.000


            END        END  NEW SURGE  NEW SURGE                                                 BOTTOM    AVERAGE
        STATION  ELEVATION    10-YEAR   100-YEAR                                                  SLOPE    A-ZONES
  OF    134.500    -14.792      0.000      8.983      0.000      0.000      0.000      0.000     -0.013      0.000


            END        END  NEW SURGE  NEW SURGE                                                 BOTTOM    AVERAGE
        STATION  ELEVATION    10-YEAR   100-YEAR                                                  SLOPE    A-ZONES
  OF    137.800    -14.835      0.000      8.990      0.000      0.000      0.000      0.000     -0.014      0.000


            END        END  NEW SURGE  NEW SURGE                                                 BOTTOM    AVERAGE
        STATION  ELEVATION    10-YEAR   100-YEAR                                                  SLOPE    A-ZONES
  OF    141.100    -14.888      0.000      8.997      0.000      0.000      0.000      0.000     -0.019      0.000


            END        END  NEW SURGE  NEW SURGE                                                 BOTTOM    AVERAGE
        STATION  ELEVATION    10-YEAR   100-YEAR                                                  SLOPE    A-ZONES
  OF    144.400    -14.957      0.000      9.005      0.000      0.000      0.000      0.000     -0.021      0.000


            END        END  NEW SURGE  NEW SURGE                                                 BOTTOM    AVERAGE
        STATION  ELEVATION    10-YEAR   100-YEAR                                                  SLOPE    A-ZONES
  OF    147.600    -15.026      0.000      9.012      0.000      0.000      0.000      0.000     -0.021      0.000


            END        END  NEW SURGE  NEW SURGE                                                 BOTTOM    AVERAGE
        STATION  ELEVATION    10-YEAR   100-YEAR                                                  SLOPE    A-ZONES
  OF    150.900    -15.095      0.000      9.018      0.000      0.000      0.000      0.000     -0.021      0.000


            END        END  NEW SURGE  NEW SURGE                                                 BOTTOM    AVERAGE
        STATION  ELEVATION    10-YEAR   100-YEAR                                                  SLOPE    A-ZONES
  OF    154.200    -15.164      0.000      9.024      0.000      0.000      0.000      0.000     -0.021      0.000


            END        END  NEW SURGE  NEW SURGE                                                 BOTTOM    AVERAGE
        STATION  ELEVATION    10-YEAR   100-YEAR                                                  SLOPE    A-ZONES
  OF    157.500    -15.233      0.000      9.031      0.000      0.000      0.000      0.000     -0.007      0.000


            END        END  NEW SURGE  NEW SURGE                                                 BOTTOM    AVERAGE
        STATION  ELEVATION    10-YEAR   100-YEAR                                                  SLOPE    A-ZONES
  OF    160.800    -15.212      0.000      9.035      0.000      0.000      0.000      0.000      0.022      0.000


            END        END  NEW SURGE  NEW SURGE                                                 BOTTOM    AVERAGE
        STATION  ELEVATION    10-YEAR   100-YEAR                                                  SLOPE    A-ZONES
  OF    164.000    -15.092      0.000      9.038      0.000      0.000      0.000      0.000      0.043      0.000


            END        END  NEW SURGE  NEW SURGE                                                 BOTTOM    AVERAGE
        STATION  ELEVATION    10-YEAR   100-YEAR                                                  SLOPE    A-ZONES
  OF    167.300    -14.931      0.000      9.041      0.000      0.000      0.000      0.000      0.049      0.000


            END        END  NEW SURGE  NEW SURGE                                                 BOTTOM    AVERAGE
        STATION  ELEVATION    10-YEAR   100-YEAR                                                  SLOPE    A-ZONES
  OF    170.600    -14.769      0.000      9.043      0.000      0.000      0.000      0.000      0.049      0.000


            END        END  NEW SURGE  NEW SURGE                                                 BOTTOM    AVERAGE
        STATION  ELEVATION    10-YEAR   100-YEAR                                                  SLOPE    A-ZONES
  OF    173.900    -14.608      0.000      9.046      0.000      0.000      0.000      0.000      0.049      0.000


            END        END  NEW SURGE  NEW SURGE                                                 BOTTOM    AVERAGE
        STATION  ELEVATION    10-YEAR   100-YEAR                                                  SLOPE    A-ZONES
  OF    177.200    -14.446      0.000      9.049      0.000      0.000      0.000      0.000      0.050      0.000


            END        END  NEW SURGE  NEW SURGE                                                 BOTTOM    AVERAGE
        STATION  ELEVATION    10-YEAR   100-YEAR                                                  SLOPE    A-ZONES
  OF    180.400    -14.285      0.000      9.052      0.000      0.000      0.000      0.000      0.050      0.000


            END        END  NEW SURGE  NEW SURGE                                                 BOTTOM    AVERAGE
        STATION  ELEVATION    10-YEAR   100-YEAR                                                  SLOPE    A-ZONES
  OF    183.700    -14.123      0.000      9.055      0.000      0.000      0.000      0.000      0.049      0.000


            END        END  NEW SURGE  NEW SURGE                                                 BOTTOM    AVERAGE
        STATION  ELEVATION    10-YEAR   100-YEAR                                                  SLOPE    A-ZONES
  OF    187.000    -13.962      0.000      9.058      0.000      0.000      0.000      0.000      0.049      0.000


            END        END  NEW SURGE  NEW SURGE                                                 BOTTOM    AVERAGE
        STATION  ELEVATION    10-YEAR   100-YEAR                                                  SLOPE    A-ZONES
  OF    190.300    -13.800      0.000      9.061      0.000      0.000      0.000      0.000      0.049      0.000


            END        END  NEW SURGE  NEW SURGE                                                 BOTTOM    AVERAGE
        STATION  ELEVATION    10-YEAR   100-YEAR                                                  SLOPE    A-ZONES
  OF    193.600    -13.639      0.000      9.065      0.000      0.000      0.000      0.000      0.050      0.000


            END        END  NEW SURGE  NEW SURGE                                                 BOTTOM    AVERAGE
        STATION  ELEVATION    10-YEAR   100-YEAR                                                  SLOPE    A-ZONES
  OF    196.800    -13.477      0.000      9.068      0.000      0.000      0.000      0.000      0.050      0.000


            END        END  NEW SURGE  NEW SURGE                                                 BOTTOM    AVERAGE
        STATION  ELEVATION    10-YEAR   100-YEAR                                                  SLOPE    A-ZONES
  OF    200.100    -13.316      0.000      9.072      0.000      0.000      0.000      0.000      0.049      0.000


            END        END  NEW SURGE  NEW SURGE                                                 BOTTOM    AVERAGE
        STATION  ELEVATION    10-YEAR   100-YEAR                                                  SLOPE    A-ZONES
  OF    203.400    -13.154      0.000      9.075      0.000      0.000      0.000      0.000      0.049      0.000


            END        END  NEW SURGE  NEW SURGE                                                 BOTTOM    AVERAGE
        STATION  ELEVATION    10-YEAR   100-YEAR                                                  SLOPE    A-ZONES
  OF    206.700    -12.993      0.000      9.079      0.000      0.000      0.000      0.000      0.049      0.000


            END        END  NEW SURGE  NEW SURGE                                                 BOTTOM    AVERAGE
        STATION  ELEVATION    10-YEAR   100-YEAR                                                  SLOPE    A-ZONES
  OF    210.000    -12.831      0.000      9.082      0.000      0.000      0.000      0.000      0.855      0.000


            END        END  NEW SURGE  NEW SURGE                                                 BOTTOM    AVERAGE
        STATION  ELEVATION    10-YEAR   100-YEAR                                                  SLOPE    A-ZONES
  OF    213.300     -7.351      0.000      8.976      0.000      0.000      0.000      0.000      1.318      0.000


            END        END  NEW SURGE  NEW SURGE                                                 BOTTOM    AVERAGE
        STATION  ELEVATION    10-YEAR   100-YEAR                                                  SLOPE    A-ZONES
  OF    216.500     -4.262      0.000      8.900      0.000      0.000      0.000      0.000      0.457      0.000


            END        END  NEW SURGE  NEW SURGE                                                 BOTTOM    AVERAGE
        STATION  ELEVATION    10-YEAR   100-YEAR                                                  SLOPE    A-ZONES
  OF    219.800     -4.382      0.000      8.969      0.000      0.000      0.000      0.000     -0.045      0.000


            END        END  NEW SURGE  NEW SURGE                                                 BOTTOM    AVERAGE
        STATION  ELEVATION    10-YEAR   100-YEAR                                                  SLOPE    A-ZONES
  OF    223.100     -4.559      0.000      9.036      0.000      0.000      0.000      0.000     -0.019      0.000


            END        END  NEW SURGE  NEW SURGE                                                 BOTTOM    AVERAGE
        STATION  ELEVATION    10-YEAR   100-YEAR                                                  SLOPE    A-ZONES
  OF    226.400     -4.505      0.000      9.085      0.000      0.000      0.000      0.000      0.031      0.000


            END        END  NEW SURGE  NEW SURGE                                                 BOTTOM    AVERAGE
        STATION  ELEVATION    10-YEAR   100-YEAR                                                  SLOPE    A-ZONES
  OF    229.700     -4.355      0.000      9.129      0.000      0.000      0.000      0.000      0.021      0.000


            END        END  NEW SURGE  NEW SURGE                                                 BOTTOM    AVERAGE
        STATION  ELEVATION    10-YEAR   100-YEAR                                                  SLOPE    A-ZONES
  OF    232.900     -4.366      0.000      9.174      0.000      0.000      0.000      0.000     -0.008      0.000


            END        END  NEW SURGE  NEW SURGE                                                 BOTTOM    AVERAGE
        STATION  ELEVATION    10-YEAR   100-YEAR                                                  SLOPE    A-ZONES
  OF    236.200     -4.407      0.000      9.213      0.000      0.000      0.000      0.000     -0.002      0.000


            END        END  NEW SURGE  NEW SURGE                                                 BOTTOM    AVERAGE
        STATION  ELEVATION    10-YEAR   100-YEAR                                                  SLOPE    A-ZONES
  OF    239.500     -4.382      0.000      9.252      0.000      0.000      0.000      0.000      0.001      0.000


            END        END  NEW SURGE  NEW SURGE                                                 BOTTOM    AVERAGE
        STATION  ELEVATION    10-YEAR   100-YEAR                                                  SLOPE    A-ZONES
  OF    242.800     -4.400      0.000      9.270      0.000      0.000      0.000      0.000     -0.007      0.000


            END        END  NEW SURGE  NEW SURGE                                                 BOTTOM    AVERAGE
        STATION  ELEVATION    10-YEAR   100-YEAR                                                  SLOPE    A-ZONES
  OF    246.100     -4.425      0.000      9.301      0.000      0.000      0.000      0.000     -0.006      0.000


            END        END  NEW SURGE  NEW SURGE                                                 BOTTOM    AVERAGE
        STATION  ELEVATION    10-YEAR   100-YEAR                                                  SLOPE    A-ZONES
  OF    249.300     -4.440      0.000      9.333      0.000      0.000      0.000      0.000      0.002      0.000


            END        END  NEW SURGE  NEW SURGE                                                 BOTTOM    AVERAGE
        STATION  ELEVATION    10-YEAR   100-YEAR                                                  SLOPE    A-ZONES
  OF    252.600     -4.415      0.000      9.362      0.000      0.000      0.000      0.000      0.006      0.000


            END        END  NEW SURGE  NEW SURGE                                                 BOTTOM    AVERAGE
        STATION  ELEVATION    10-YEAR   100-YEAR                                                  SLOPE    A-ZONES
  OF    255.900     -4.399      0.000      9.389      0.000      0.000      0.000      0.000      0.006      0.000


            END        END  NEW SURGE  NEW SURGE                                                 BOTTOM    AVERAGE
        STATION  ELEVATION    10-YEAR   100-YEAR                                                  SLOPE    A-ZONES
  OF    259.200     -4.376      0.000      9.413      0.000      0.000      0.000      0.000      0.010      0.000


            END        END  NEW SURGE  NEW SURGE                                                 BOTTOM    AVERAGE
        STATION  ELEVATION    10-YEAR   100-YEAR                                                  SLOPE    A-ZONES
  OF    262.500     -4.332      0.000      9.436      0.000      0.000      0.000      0.000      0.014      0.000


            END        END  NEW SURGE  NEW SURGE                                                 BOTTOM    AVERAGE
        STATION  ELEVATION    10-YEAR   100-YEAR                                                  SLOPE    A-ZONES
  OF    265.700     -4.282      0.000      9.457      0.000      0.000      0.000      0.000     -0.003      0.000


            END        END  NEW SURGE  NEW SURGE                                                 BOTTOM    AVERAGE
        STATION  ELEVATION    10-YEAR   100-YEAR                                                  SLOPE    A-ZONES
  OF    269.000     -4.352      0.000      9.479      0.000      0.000      0.000      0.000     -0.026      0.000


            END        END  NEW SURGE  NEW SURGE                                                 BOTTOM    AVERAGE
        STATION  ELEVATION    10-YEAR   100-YEAR                                                  SLOPE    A-ZONES
  OF    272.300     -4.454      0.000      9.500      0.000      0.000      0.000      0.000     -0.022      0.000


            END        END  NEW SURGE  NEW SURGE                                                 BOTTOM    AVERAGE
        STATION  ELEVATION    10-YEAR   100-YEAR                                                  SLOPE    A-ZONES
  OF    275.600     -4.495      0.000      9.517      0.000      0.000      0.000      0.000     -0.001      0.000


            END        END  NEW SURGE  NEW SURGE                                                 BOTTOM    AVERAGE
        STATION  ELEVATION    10-YEAR   100-YEAR                                                  SLOPE    A-ZONES
  OF    278.900     -4.458      0.000      9.532      0.000      0.000      0.000      0.000      0.015      0.000


            END        END  NEW SURGE  NEW SURGE                                                 BOTTOM    AVERAGE
        STATION  ELEVATION    10-YEAR   100-YEAR                                                  SLOPE    A-ZONES
  OF    282.200     -4.393      0.000      9.545      0.000      0.000      0.000      0.000      0.020      0.000


            END        END  NEW SURGE  NEW SURGE                                                 BOTTOM    AVERAGE
        STATION  ELEVATION    10-YEAR   100-YEAR                                                  SLOPE    A-ZONES
  OF    285.400     -4.328      0.000      9.558      0.000      0.000      0.000      0.000      0.019      0.000


            END        END  NEW SURGE  NEW SURGE                                                 BOTTOM    AVERAGE
        STATION  ELEVATION    10-YEAR   100-YEAR                                                  SLOPE    A-ZONES
  OF    288.700     -4.269      0.000      9.570      0.000      0.000      0.000      0.000      0.017      0.000


            END        END  NEW SURGE  NEW SURGE                                                 BOTTOM    AVERAGE
        STATION  ELEVATION    10-YEAR   100-YEAR                                                  SLOPE    A-ZONES
  OF    292.000     -4.216      0.000      9.582      0.000      0.000      0.000      0.000      0.004      0.000


            END        END  NEW SURGE  NEW SURGE                                                 BOTTOM    AVERAGE
        STATION  ELEVATION    10-YEAR   100-YEAR                                                  SLOPE    A-ZONES
  OF    295.300     -4.239      0.000      9.594      0.000      0.000      0.000      0.000      0.010      0.000


            END        END  NEW SURGE  NEW SURGE                                                 BOTTOM    AVERAGE
        STATION  ELEVATION    10-YEAR   100-YEAR                                                  SLOPE    A-ZONES
  OF    298.600     -4.148      0.000      9.604      0.000      0.000      0.000      0.000      0.031      0.000


            END        END  NEW SURGE  NEW SURGE                                                 BOTTOM    AVERAGE
        STATION  ELEVATION    10-YEAR   100-YEAR                                                  SLOPE    A-ZONES
  OF    301.800     -4.037      0.000      9.613      0.000      0.000      0.000      0.000      0.014      0.000


            END        END  NEW SURGE  NEW SURGE                                                 BOTTOM    AVERAGE
        STATION  ELEVATION    10-YEAR   100-YEAR                                                  SLOPE    A-ZONES
  OF    305.100     -4.057      0.000      9.625      0.000      0.000      0.000      0.000     -0.016      0.000


            END        END  NEW SURGE  NEW SURGE                                                 BOTTOM    AVERAGE
        STATION  ELEVATION    10-YEAR   100-YEAR                                                  SLOPE    A-ZONES
  OF    308.400     -4.142      0.000      9.636      0.000      0.000      0.000      0.000     -0.034      0.000


            END        END  NEW SURGE  NEW SURGE                                                 BOTTOM    AVERAGE
        STATION  ELEVATION    10-YEAR   100-YEAR                                                  SLOPE    A-ZONES
  OF    311.700     -4.285      0.000      9.648      0.000      0.000      0.000      0.000     -0.022      0.000


            END        END  NEW SURGE  NEW SURGE                                                 BOTTOM    AVERAGE
        STATION  ELEVATION    10-YEAR   100-YEAR                                                  SLOPE    A-ZONES
  OF    315.000     -4.290      0.000      9.656      0.000      0.000      0.000      0.000      0.021      0.000


            END        END  NEW SURGE  NEW SURGE                                                 BOTTOM    AVERAGE
        STATION  ELEVATION    10-YEAR   100-YEAR                                                  SLOPE    A-ZONES
  OF    318.200     -4.151      0.000      9.662      0.000      0.000      0.000      0.000      0.037      0.000


            END        END  NEW SURGE  NEW SURGE                                                 BOTTOM    AVERAGE
        STATION  ELEVATION    10-YEAR   100-YEAR                                                  SLOPE    A-ZONES
  OF    321.500     -4.049      0.000      9.669      0.000      0.000      0.000      0.000      0.028      0.000


            END        END  NEW SURGE  NEW SURGE                                                 BOTTOM    AVERAGE
        STATION  ELEVATION    10-YEAR   100-YEAR                                                  SLOPE    A-ZONES
  OF    324.800     -3.967      0.000      9.675      0.000      0.000      0.000      0.000      0.007      0.000


            END        END  NEW SURGE  NEW SURGE                                                 BOTTOM    AVERAGE
        STATION  ELEVATION    10-YEAR   100-YEAR                                                  SLOPE    A-ZONES
  OF    328.100     -3.999      0.000      9.683      0.000      0.000      0.000      0.000     -0.025      0.000


            END        END  NEW SURGE  NEW SURGE                                                 BOTTOM    AVERAGE
        STATION  ELEVATION    10-YEAR   100-YEAR                                                  SLOPE    A-ZONES
  OF    331.400     -4.133      0.000      9.692      0.000      0.000      0.000      0.000     -0.028      0.000


            END        END  NEW SURGE  NEW SURGE                                                 BOTTOM    AVERAGE
        STATION  ELEVATION    10-YEAR   100-YEAR                                                  SLOPE    A-ZONES
  OF    334.600     -4.181      0.000      9.700      0.000      0.000      0.000      0.000     -0.013      0.000


            END        END  NEW SURGE  NEW SURGE                                                 BOTTOM    AVERAGE
[...]

                                                                          V24  EL=17     140

                                             567.60          17.18

                                                                          V24  EL=17     140

                                             570.90          17.19

                                                                          V24  EL=17     140

                                             574.10          17.19

                                                                          V24  EL=17     140

                                             577.40          17.20

                                                                          V24  EL=17     140

                                             580.70          17.20

                                                                          V24  EL=17     140

                                             584.00          17.21

                                                                          V24  EL=17     140

                                             587.30          17.21

                                                                          V24  EL=17     140

                                             590.50          17.22

                                                                          V24  EL=17     140

                                             593.80          17.22

                                                                          V24  EL=17     140

                                             597.10          17.23

                                                                          V24  EL=17     140

                                             600.40          17.23

                                                                          V24  EL=17     140

                                             603.70          17.23

                                                                          V24  EL=17     140

                                             607.00          17.22

                                                                          V24  EL=17     140

                                             610.20          17.22

                                                                          V24  EL=17     140

                                             613.50          17.22

                                                                          V24  EL=17     140

                                             616.80          17.22

                                                                          V24  EL=17     140

                                             620.10          17.23

                                                                          V24  EL=17     140

                                             623.40          17.23

                                                                          V24  EL=17     140

                                             626.60          17.24

                                                                          V24  EL=17     140

                                             629.90          17.25

                                                                          V24  EL=17     140

                                             633.20          17.26

                                                                          V24  EL=17     140

                                             636.50          17.27

                                                                          V24  EL=17     140

                                             639.80          17.28

                                                                          V24  EL=17     140

                                             643.00          17.27

                                                                          V24  EL=17     140

                                             646.30          17.22

                                                                          V24  EL=17     140

                                             649.60          17.20

                                                                          V24  EL=17     140

                                             652.90          17.21

                                                                          V24  EL=17     140

                                             656.20          17.22

                                                                          V24  EL=17     140

                                             659.40          17.24

                                                                          V24  EL=17     140

                                             662.70          17.25

                                                                          V24  EL=17     140

                                             666.00          17.26

                                                                          V24  EL=17     140

                                             669.30          17.27

                                                                          V24  EL=17     140

                                             675.90          17.24

                                                                          V24  EL=17     140

                                             679.10          17.25

                                                                          V24  EL=17     140

                                             682.40          17.26

                                                                          V24  EL=17     140

                                             685.70          17.26

                                                                          V24  EL=17     140

                                             689.00          17.26

                                                                          V24  EL=17     140

                                             692.30          17.27

                                                                          V24  EL=17     140

                                             695.50          17.27

                                                                          V24  EL=17     140

                                             698.80          17.27

                                                                          V24  EL=17     140

                                             702.10          17.28

                                                                          V24  EL=17     140

                                             705.40          17.28

                                                                          V24  EL=17     140

                                             708.70          17.28

                                                                          V24  EL=17     140

                                             711.90          17.29

                                                                          V24  EL=17     140

                                             715.20          17.29

                                                                          V24  EL=17     140

                                             718.50          17.29

                                                                          V24  EL=17     140

                                             725.10          17.28

                                                                          V24  EL=17     140

                                             728.30          17.26

                                                                          V24  EL=17     140

                                             731.60          17.29

                                                                          V24  EL=17     140

                                             734.90          17.31

                                                                          V24  EL=17     140

                                             738.20          17.34

                                                                          V24  EL=17     140

                                             741.50          17.35

                                                                          V24  EL=17     140

                                             744.70          17.32

                                                                          V24  EL=17     140

                                             748.00          17.32

                                                                          V24  EL=17     140

                                             751.30          17.33

                                                                          V24  EL=17     140

                                             754.60          17.35

                                                                          V24  EL=17     140

                                             757.90          17.37

                                                                          V24  EL=17     140

                                             761.20          17.36

                                                                          V24  EL=17     140

                                             764.40          17.33

                                                                          V24  EL=17     140

                                             767.70          17.32

                                                                          V24  EL=17     140

                                             771.00          17.33

                                                                          V24  EL=17     140

                                             774.30          17.37

                                                                          V24  EL=17     140

                                             777.60          17.37

                                                                          V24  EL=17     140

                                             780.80          17.34

                                                                          V24  EL=17     140

                                             784.10          17.34

                                                                          V24  EL=17     140

                                             787.40          17.35

                                                                          V24  EL=17     140

                                             790.70          17.37

                                                                          V24  EL=17     140

                                             794.00          17.37

                                                                          V24  EL=17     140

                                             797.20          17.35

                                                                          V24  EL=17     140

                                             800.50          17.35

                                                                          V24  EL=17     140

                                             803.80          17.36

                                                                          V24  EL=17     140

                                             807.10          17.37

                                                                          V24  EL=17     140

                                             816.90          17.34

                                                                          V24  EL=17     140

                                             820.20          17.27

                                                                          V24  EL=17     140

                                             823.50          17.20

                                                                          V24  EL=17     140

                                             826.80          17.09

                                                                          V24  EL=17     140

                                             830.10          17.01

                                                                          V24  EL=17     140

                                             833.30          16.99

                                                                          V24  EL=17     140

                                             836.60          17.00

                                                                          V24  EL=17     140

                                             839.90          17.01

                                                                          V24  EL=17     140

                                             849.70          16.89

                                                                          V24  EL=17     140

                                             853.00          16.90

                                                                          V24  EL=17     140

                                             856.30          16.90

                                                                          V24  EL=17     140

                                             859.60          16.89

                                                                          V24  EL=17     140

                                             862.90          16.92

                                                                          V24  EL=17     140

                                             866.10          16.94

                                                                          V24  EL=17     140

                                             869.40          16.93

                                                                          V24  EL=17     140

                                             872.70          16.89

                                                                          V24  EL=17     140

                                             876.00          16.53

                                                                          V24  EL=17     140

                                             877.23          16.50

                                                                          V24  EL=16     140

                                             895.70          15.98

                                                                          V24  EL=16     140

                                             898.90          15.81

                                                                          V24  EL=16     140

                                             902.20          15.61

                                                                          V24  EL=16     140

                                             905.50          15.56

                                                                          V24  EL=16     140

                                             908.80          15.51

                                                                          V24  EL=16     140

                                             909.02          15.50

                                                                          V24  EL=15     140

                                             912.10          15.36

                                                                          V24  EL=15     140

                                             915.40          15.18

                                                                          V24  EL=15     140

                                             918.60          14.98

                                                                          V24  EL=15     140

                                             921.90          14.88

                                                                          V24  EL=15     140

                                             925.20          14.82

                                                                          V24  EL=15     140

                                             928.50          14.58

                                                                          V24  EL=15     140

                                             929.28          14.50

                                                                          V24  EL=14     140

                                             931.80          14.24

                                                                          V24  EL=14     140

                                             935.00          13.90

                                                                          V24  EL=14     140

                                             938.30          13.70

                                                                          V24  EL=14     140

                                             941.60          13.51

                                                                          V24  EL=14     140

                                             941.73          13.50

                                                                          V24  EL=13     140

                                             944.90          13.21

                                                                          V24  EL=13     140

                                             948.20          12.86

                                                                          V24  EL=13     140

                                             951.40          12.52

                                                                          V24  EL=13     140

                                             951.67          12.50

                                                                          V24  EL=12     140

                                             954.70          12.23

                                                                          V24  EL=12     140

                                             955.77          12.17

                                                                          A21  EL=12     110

                                             958.00          11.98

                                                                          A21  EL=12     110

                                             961.30          11.85

                                                                          A21  EL=12     110

                                             964.60          11.93

                                                                          A21  EL=12     110

                                             967.80          11.74

                                                                          A21  EL=12     110

                                             971.10          11.65

                                                                          A21  EL=12     110

                                             972.74          11.50

                                                                          A21  EL=11     110

                                             984.40          10.58



                                                  ZONE TERMINATED AT END OF TRANSECT



                                                  PART 7   POSTSCRIPT NOTES


                         PS#  1   START(420292.1425,4842441.2034)                                              
                         PS#  2   END(420020.6308,4842588.6782)                                                
