 WAVE HEIGHT COMPUTATIONS FOR FLOOD INSURANCE STUDIES (WHAFIS VERSION 4.0G, 08_2007)
 Executed on: Thu Feb 20 14:57:36 2020
 Input file:  C:\FEMA-TransectAnalysis\LOMR-TransectAnalysis-Harpswell\3_whafis\whafis4\CM-124-1.dat                                          
 Output file: C:\FEMA-TransectAnalysis\LOMR-TransectAnalysis-Harpswell\3_whafis\whafis4\CM-124-1.out                                          



                                                              header                                                                
                                                     THIS IS A 100-YEAR CASE


                                       THE FOLLOWING NON-DEFAULT WIND SPEEDS ARE BEING USED
                                            WINDIF  56.14  WINDOF  56.14  WINDVH  60.00

                                                             PART1 INPUT

          IE      0.000    -21.564      1.000      1.000      8.983      4.181      3.400     56.140      0.042      0.000
          OF      1.000    -21.522      0.000      8.983      0.000      0.000      0.000      0.000      0.041      0.000
          OF      2.000    -21.481      0.000      8.983      0.000      0.000      0.000      0.000      0.041      0.000
          OF      3.000    -21.439      0.000      8.983      0.000      0.000      0.000      0.000      0.042      0.000
          OF      4.000    -21.397      0.000      8.983      0.000      0.000      0.000      0.000      0.042      0.000
          OF      5.000    -21.355      0.000      8.983      0.000      0.000      0.000      0.000      0.042      0.000
          OF      6.000    -21.313      0.000      8.983      0.000      0.000      0.000      0.000      0.041      0.000
          OF      7.000    -21.272      0.000      8.983      0.000      0.000      0.000      0.000      0.041      0.000
          OF      8.000    -21.230      0.000      8.983      0.000      0.000      0.000      0.000      0.042      0.000
          OF      9.000    -21.188      0.000      8.983      0.000      0.000      0.000      0.000      0.042      0.000
          OF     10.000    -21.146      0.000      8.983      0.000      0.000      0.000      0.000      0.042      0.000
          OF     11.000    -21.104      0.000      8.983      0.000      0.000      0.000      0.000      0.042      0.000
          OF     12.000    -21.062      0.000      8.983      0.000      0.000      0.000      0.000      0.041      0.000
          OF     13.000    -21.021      0.000      8.983      0.000      0.000      0.000      0.000      0.041      0.000
          OF     14.000    -20.979      0.000      8.983      0.000      0.000      0.000      0.000      0.042      0.000
          OF     15.000    -20.937      0.000      8.983      0.000      0.000      0.000      0.000      0.042      0.000
          OF     16.000    -20.895      0.000      8.983      0.000      0.000      0.000      0.000      0.042      0.000
          OF     17.000    -20.853      0.000      8.983      0.000      0.000      0.000      0.000      0.041      0.000
          OF     18.000    -20.812      0.000      8.983      0.000      0.000      0.000      0.000      0.041      0.000
          OF     19.000    -20.770      0.000      8.983      0.000      0.000      0.000      0.000      0.042      0.000
          OF     20.000    -20.728      0.000      8.983      0.000      0.000      0.000      0.000      0.042      0.000
          OF     21.000    -20.686      0.000      8.983      0.000      0.000      0.000      0.000      0.042      0.000
          OF     22.000    -20.644      0.000      8.983      0.000      0.000      0.000      0.000      0.042      0.000
          OF     23.000    -20.602      0.000      8.983      0.000      0.000      0.000      0.000      0.041      0.000
          OF     24.000    -20.561      0.000      8.983      0.000      0.000      0.000      0.000      0.041      0.000
          OF     25.000    -20.519      0.000      8.983      0.000      0.000      0.000      0.000      0.042      0.000
          OF     26.000    -20.477      0.000      8.983      0.000      0.000      0.000      0.000      0.042      0.000
          OF     27.000    -20.435      0.000      8.983      0.000      0.000      0.000      0.000      0.042      0.000
          OF     28.000    -20.393      0.000      8.983      0.000      0.000      0.000      0.000      0.041      0.000
          OF     29.000    -20.352      0.000      8.983      0.000      0.000      0.000      0.000      0.041      0.000
          OF     30.000    -20.310      0.000      8.983      0.000      0.000      0.000      0.000      0.042      0.000
          OF     31.000    -20.268      0.000      8.983      0.000      0.000      0.000      0.000      0.042      0.000
          OF     32.000    -20.226      0.000      8.983      0.000      0.000      0.000      0.000      0.042      0.000
          OF     33.000    -20.184      0.000      8.983      0.000      0.000      0.000      0.000      0.042      0.000
          OF     34.000    -20.142      0.000      8.983      0.000      0.000      0.000      0.000      0.041      0.000
          OF     35.000    -20.101      0.000      8.983      0.000      0.000      0.000      0.000      0.041      0.000
          OF     36.000    -20.059      0.000      8.983      0.000      0.000      0.000      0.000      0.042      0.000
          OF     37.000    -20.017      0.000      8.983      0.000      0.000      0.000      0.000      0.042      0.000
          OF     38.000    -19.975      0.000      8.983      0.000      0.000      0.000      0.000      0.042      0.000
          OF     39.000    -19.933      0.000      8.983      0.000      0.000      0.000      0.000      0.041      0.000
          OF     40.000    -19.892      0.000      8.983      0.000      0.000      0.000      0.000      0.041      0.000
          OF     41.000    -19.850      0.000      8.983      0.000      0.000      0.000      0.000      0.042      0.000
          OF     42.000    -19.808      0.000      8.983      0.000      0.000      0.000      0.000      0.042      0.000
          OF     43.000    -19.766      0.000      8.983      0.000      0.000      0.000      0.000      0.042      0.000
          OF     44.000    -19.724      0.000      8.983      0.000      0.000      0.000      0.000      0.041      0.000
          OF     45.000    -19.683      0.000      8.983      0.000      0.000      0.000      0.000      0.041      0.000
          OF     46.000    -19.641      0.000      8.983      0.000      0.000      0.000      0.000      0.042      0.000
          OF     47.000    -19.599      0.000      8.983      0.000      0.000      0.000      0.000      0.042      0.000
          OF     48.000    -19.557      0.000      8.983      0.000      0.000      0.000      0.000      0.042      0.000
          OF     49.000    -19.515      0.000      8.983      0.000      0.000      0.000      0.000      0.042      0.000
          OF     50.000    -19.473      0.000      8.983      0.000      0.000      0.000      0.000      0.041      0.000
          OF     51.000    -19.432      0.000      8.983      0.000      0.000      0.000      0.000      0.041      0.000
          OF     52.000    -19.390      0.000      8.983      0.000      0.000      0.000      0.000      0.042      0.000
          OF     53.000    -19.348      0.000      8.983      0.000      0.000      0.000      0.000      0.042      0.000
          OF     54.000    -19.306      0.000      8.983      0.000      0.000      0.000      0.000      0.042      0.000
          OF     55.000    -19.264      0.000      8.983      0.000      0.000      0.000      0.000      0.043      0.000
          OF     56.000    -19.220      0.000      8.983      0.000      0.000      0.000      0.000      0.045      0.000
          OF     57.000    -19.175      0.000      8.983      0.000      0.000      0.000      0.000      0.045      0.000
          OF     58.000    -19.131      0.000      8.983      0.000      0.000      0.000      0.000      0.044      0.000
          OF     59.000    -19.087      0.000      8.983      0.000      0.000      0.000      0.000      0.044      0.000
          OF     60.000    -19.043      0.000      8.983      0.000      0.000      0.000      0.000      0.044      0.000
          OF     61.000    -18.999      0.000      8.983      0.000      0.000      0.000      0.000      0.044      0.000
          OF     62.000    -18.955      0.000      8.983      0.000      0.000      0.000      0.000      0.045      0.000
          OF     63.000    -18.910      0.000      8.983      0.000      0.000      0.000      0.000      0.045      0.000
          OF     64.000    -18.866      0.000      8.983      0.000      0.000      0.000      0.000      0.044      0.000
          OF     65.000    -18.822      0.000      8.983      0.000      0.000      0.000      0.000      0.044      0.000
          OF     66.000    -18.778      0.000      8.983      0.000      0.000      0.000      0.000      0.044      0.000
          OF     67.000    -18.734      0.000      8.983      0.000      0.000      0.000      0.000      0.044      0.000
          OF     68.000    -18.690      0.000      8.983      0.000      0.000      0.000      0.000      0.044      0.000
          OF     69.000    -18.646      0.000      8.983      0.000      0.000      0.000      0.000      0.045      0.000
          OF     70.000    -18.601      0.000      8.983      0.000      0.000      0.000      0.000      0.045      0.000
          OF     71.000    -18.557      0.000      8.983      0.000      0.000      0.000      0.000      0.044      0.000
          OF     72.000    -18.513      0.000      8.983      0.000      0.000      0.000      0.000      0.044      0.000
          OF     73.000    -18.469      0.000      8.983      0.000      0.000      0.000      0.000      0.044      0.000
          OF     74.000    -18.425      0.000      8.983      0.000      0.000      0.000      0.000      0.052      0.000
          OF     75.000    -18.366      0.000      8.983      0.000      0.000      0.000      0.000      0.065      0.000
          OF     76.000    -18.295      0.000      8.983      0.000      0.000      0.000      0.000      0.071      0.000
          OF     77.000    -18.225      0.000      8.983      0.000      0.000      0.000      0.000      0.070      0.000
          OF     78.000    -18.155      0.000      8.983      0.000      0.000      0.000      0.000      0.071      0.000
          OF     79.000    -18.084      0.000      8.983      0.000      0.000      0.000      0.000      0.071      0.000
          OF     80.000    -18.014      0.000      8.983      0.000      0.000      0.000      0.000      0.070      0.000
          OF     81.000    -17.944      0.000      8.983      0.000      0.000      0.000      0.000      0.071      0.000
          OF     82.000    -17.873      0.000      8.983      0.000      0.000      0.000      0.000      0.071      0.000
          OF     83.000    -17.803      0.000      8.983      0.000      0.000      0.000      0.000      0.071      0.000
          OF     84.000    -17.732      0.000      8.983      0.000      0.000      0.000      0.000      0.071      0.000
          OF     85.000    -17.662      0.000      8.983      0.000      0.000      0.000      0.000      0.070      0.000
          OF     86.000    -17.592      0.000      8.983      0.000      0.000      0.000      0.000      0.071      0.000
          OF     87.000    -17.521      0.000      8.983      0.000      0.000      0.000      0.000      0.071      0.000
          OF     88.000    -17.451      0.000      8.983      0.000      0.000      0.000      0.000      0.071      0.000
          OF     89.000    -17.380      0.000      8.983      0.000      0.000      0.000      0.000      0.071      0.000
          OF     90.000    -17.310      0.000      8.983      0.000      0.000      0.000      0.000      0.070      0.000
          OF     91.000    -17.240      0.000      8.983      0.000      0.000      0.000      0.000      0.071      0.000
          OF     92.000    -17.169      0.000      8.983      0.000      0.000      0.000      0.000      0.071      0.000
          OF     93.000    -17.099      0.000      8.983      0.000      0.000      0.000      0.000      0.070      0.000
          OF     94.000    -17.029      0.000      8.983      0.000      0.000      0.000      0.000      0.071      0.000
          OF     95.000    -16.958      0.000      8.983      0.000      0.000      0.000      0.000      0.071      0.000
          OF     96.000    -16.888      0.000      8.983      0.000      0.000      0.000      0.000      0.071      0.000
          OF     97.000    -16.817      0.000      8.983      0.000      0.000      0.000      0.000      0.069      0.000
          OF     98.000    -16.749      0.000      8.983      0.000      0.000      0.000      0.000      0.068      0.000
          OF     99.000    -16.681      0.000      8.983      0.000      0.000      0.000      0.000      0.068      0.000
          OF    100.000    -16.614      0.000      8.983      0.000      0.000      0.000      0.000      0.068      0.000
          OF    101.000    -16.546      0.000      8.983      0.000      0.000      0.000      0.000      0.068      0.000
          OF    102.000    -16.478      0.000      8.983      0.000      0.000      0.000      0.000      0.068      0.000
          OF    103.000    -16.411      0.000      8.983      0.000      0.000      0.000      0.000      0.068      0.000
          OF    104.000    -16.343      0.000      8.983      0.000      0.000      0.000      0.000      0.068      0.000
          OF    105.000    -16.275      0.000      8.983      0.000      0.000      0.000      0.000      0.068      0.000
          OF    106.000    -16.207      0.000      8.983      0.000      0.000      0.000      0.000      0.068      0.000
          OF    107.000    -16.140      0.000      8.983      0.000      0.000      0.000      0.000      0.068      0.000
          OF    108.000    -16.072      0.000      8.983      0.000      0.000      0.000      0.000      0.068      0.000
          OF    109.000    -16.004      0.000      8.983      0.000      0.000      0.000      0.000      0.068      0.000
          OF    110.000    -15.936      0.000      8.983      0.000      0.000      0.000      0.000      0.068      0.000
          OF    111.000    -15.868      0.000      8.983      0.000      0.000      0.000      0.000      0.068      0.000
          OF    112.000    -15.801      0.000      8.983      0.000      0.000      0.000      0.000      0.068      0.000
          OF    113.000    -15.733      0.000      8.983      0.000      0.000      0.000      0.000      0.068      0.000
          OF    114.000    -15.665      0.000      8.983      0.000      0.000      0.000      0.000      0.068      0.000
          OF    115.000    -15.597      0.000      8.983      0.000      0.000      0.000      0.000      0.068      0.000
          OF    116.000    -15.530      0.000      8.983      0.000      0.000      0.000      0.000      0.068      0.000
          OF    117.000    -15.462      0.000      8.983      0.000      0.000      0.000      0.000      0.068      0.000
          OF    118.000    -15.394      0.000      8.983      0.000      0.000      0.000      0.000      0.068      0.000
          OF    119.000    -15.327      0.000      8.983      0.000      0.000      0.000      0.000      0.068      0.000
          OF    120.000    -15.259      0.000      8.983      0.000      0.000      0.000      0.000      0.068      0.000
          OF    121.000    -15.191      0.000      8.983      0.000      0.000      0.000      0.000      0.068      0.000
          OF    122.000    -15.123      0.000      8.983      0.000      0.000      0.000      0.000      0.068      0.000
          OF    123.000    -15.055      0.000      8.983      0.000      0.000      0.000      0.000      0.068      0.000
          OF    124.000    -14.988      0.000      8.983      0.000      0.000      0.000      0.000      0.068      0.000
          OF    125.000    -14.920      0.000      8.982      0.000      0.000      0.000      0.000      0.068      0.000
          OF    126.000    -14.852      0.000      8.982      0.000      0.000      0.000      0.000      0.068      0.000
          OF    127.000    -14.784      0.000      8.982      0.000      0.000      0.000      0.000      0.068      0.000
          OF    128.000    -14.717      0.000      8.982      0.000      0.000      0.000      0.000      0.068      0.000
          OF    129.000    -14.649      0.000      8.982      0.000      0.000      0.000      0.000      0.068      0.000
          OF    130.000    -14.581      0.000      8.982      0.000      0.000      0.000      0.000      0.068      0.000
          OF    131.000    -14.514      0.000      8.982      0.000      0.000      0.000      0.000      0.068      0.000
          OF    132.000    -14.446      0.000      8.982      0.000      0.000      0.000      0.000      0.068      0.000
          OF    133.000    -14.378      0.000      8.982      0.000      0.000      0.000      0.000      0.068      0.000
          OF    134.000    -14.310      0.000      8.982      0.000      0.000      0.000      0.000      0.068      0.000
          OF    135.000    -14.242      0.000      8.982      0.000      0.000      0.000      0.000      0.068      0.000
          OF    136.000    -14.175      0.000      8.982      0.000      0.000      0.000      0.000      0.068      0.000
          OF    137.000    -14.107      0.000      8.982      0.000      0.000      0.000      0.000      0.068      0.000
          OF    138.000    -14.039      0.000      8.982      0.000      0.000      0.000      0.000      0.068      0.000
          OF    139.000    -13.972      0.000      8.982      0.000      0.000      0.000      0.000      0.068      0.000
          OF    140.000    -13.904      0.000      8.982      0.000      0.000      0.000      0.000      0.068      0.000
          OF    141.000    -13.836      0.000      8.982      0.000      0.000      0.000      0.000      0.068      0.000
          OF    142.000    -13.768      0.000      8.982      0.000      0.000      0.000      0.000      0.068      0.000
          OF    143.000    -13.701      0.000      8.982      0.000      0.000      0.000      0.000      0.068      0.000
          OF    144.000    -13.633      0.000      8.982      0.000      0.000      0.000      0.000      0.068      0.000
          OF    145.000    -13.565      0.000      8.982      0.000      0.000      0.000      0.000      0.068      0.000
          OF    146.000    -13.497      0.000      8.982      0.000      0.000      0.000      0.000      0.068      0.000
          OF    147.000    -13.430      0.000      8.982      0.000      0.000      0.000      0.000      0.068      0.000
          OF    148.000    -13.362      0.000      8.982      0.000      0.000      0.000      0.000      0.068      0.000
          OF    149.000    -13.294      0.000      8.982      0.000      0.000      0.000      0.000      0.068      0.000
          OF    150.000    -13.226      0.000      8.982      0.000      0.000      0.000      0.000      0.068      0.000
          OF    151.000    -13.159      0.000      8.982      0.000      0.000      0.000      0.000      0.068      0.000
          OF    152.000    -13.091      0.000      8.982      0.000      0.000      0.000      0.000      0.068      0.000
          OF    153.000    -13.023      0.000      8.982      0.000      0.000      0.000      0.000      0.068      0.000
          OF    154.000    -12.955      0.000      8.982      0.000      0.000      0.000      0.000      0.068      0.000
          OF    155.000    -12.888      0.000      8.982      0.000      0.000      0.000      0.000      0.068      0.000
          OF    156.000    -12.820      0.000      8.982      0.000      0.000      0.000      0.000      0.068      0.000
          OF    157.000    -12.752      0.000      8.982      0.000      0.000      0.000      0.000      0.068      0.000
          OF    158.000    -12.684      0.000      8.982      0.000      0.000      0.000      0.000      0.068      0.000
          OF    159.000    -12.617      0.000      8.982      0.000      0.000      0.000      0.000      0.068      0.000
          OF    160.000    -12.549      0.000      8.982      0.000      0.000      0.000      0.000      0.068      0.000
          OF    161.000    -12.481      0.000      8.982      0.000      0.000      0.000      0.000      0.068      0.000
          OF    162.000    -12.413      0.000      8.982      0.000      0.000      0.000      0.000      0.068      0.000
          OF    163.000    -12.345      0.000      8.982      0.000      0.000      0.000      0.000      0.068      0.000
          OF    164.000    -12.278      0.000      8.982      0.000      0.000      0.000      0.000      0.068      0.000
          OF    165.000    -12.210      0.000      8.982      0.000      0.000      0.000      0.000      0.068      0.000
          OF    166.000    -12.142      0.000      8.982      0.000      0.000      0.000      0.000      0.053      0.000
          OF    167.000    -12.104      0.000      8.982      0.000      0.000      0.000      0.000      0.038      0.000
          OF    168.000    -12.067      0.000      8.982      0.000      0.000      0.000      0.000      0.037      0.000
          OF    169.000    -12.030      0.000      8.982      0.000      0.000      0.000      0.000      0.037      0.000
          OF    170.000    -11.993      0.000      8.982      0.000      0.000      0.000      0.000      0.037      0.000
          OF    171.000    -11.956      0.000      8.982      0.000      0.000      0.000      0.000      0.037      0.000
          OF    172.000    -11.919      0.000      8.982      0.000      0.000      0.000      0.000      0.037      0.000
          OF    173.000    -11.882      0.000      8.982      0.000      0.000      0.000      0.000      0.037      0.000
          OF    174.000    -11.845      0.000      8.982      0.000      0.000      0.000      0.000      0.037      0.000
          OF    175.000    -11.808      0.000      8.982      0.000      0.000      0.000      0.000      0.036      0.000
          OF    176.000    -11.772      0.000      8.982      0.000      0.000      0.000      0.000      0.036      0.000
          OF    177.000    -11.735      0.000      8.982      0.000      0.000      0.000      0.000      0.037      0.000
          OF    178.000    -11.698      0.000      8.982      0.000      0.000      0.000      0.000      0.037      0.000
          OF    179.000    -11.661      0.000      8.982      0.000      0.000      0.000      0.000      0.037      0.000
          OF    180.000    -11.624      0.000      8.982      0.000      0.000      0.000      0.000      0.037      0.000
          OF    181.000    -11.587      0.000      8.982      0.000      0.000      0.000      0.000      0.037      0.000
          OF    182.000    -11.550      0.000      8.982      0.000      0.000      0.000      0.000      0.037      0.000
          OF    183.000    -11.513      0.000      8.982      0.000      0.000      0.000      0.000      0.037      0.000
          OF    184.000    -11.476      0.000      8.982      0.000      0.000      0.000      0.000      0.037      0.000
          OF    185.000    -11.439      0.000      8.982      0.000      0.000      0.000      0.000      0.037      0.000
          OF    186.000    -11.402      0.000      8.982      0.000      0.000      0.000      0.000      0.037      0.000
          OF    187.000    -11.365      0.000      8.982      0.000      0.000      0.000      0.000      0.037      0.000
          OF    188.000    -11.328      0.000      8.982      0.000      0.000      0.000      0.000      0.037      0.000
          OF    189.000    -11.291      0.000      8.982      0.000      0.000      0.000      0.000      0.036      0.000
          OF    190.000    -11.255      0.000      8.982      0.000      0.000      0.000      0.000      0.036      0.000
          OF    191.000    -11.218      0.000      8.982      0.000      0.000      0.000      0.000      0.037      0.000
          OF    192.000    -11.181      0.000      8.982      0.000      0.000      0.000      0.000      0.037      0.000
          OF    193.000    -11.144      0.000      8.982      0.000      0.000      0.000      0.000      0.037      0.000
          OF    194.000    -11.107      0.000      8.982      0.000      0.000      0.000      0.000      0.037      0.000
          OF    195.000    -11.070      0.000      8.982      0.000      0.000      0.000      0.000      0.037      0.000
          OF    196.000    -11.033      0.000      8.982      0.000      0.000      0.000      0.000      0.037      0.000
          OF    197.000    -10.996      0.000      8.982      0.000      0.000      0.000      0.000      0.037      0.000
          OF    198.000    -10.959      0.000      8.982      0.000      0.000      0.000      0.000      0.037      0.000
          OF    199.000    -10.922      0.000      8.982      0.000      0.000      0.000      0.000      0.037      0.000
          OF    200.000    -10.885      0.000      8.982      0.000      0.000      0.000      0.000      0.037      0.000
          OF    201.000    -10.848      0.000      8.982      0.000      0.000      0.000      0.000      0.037      0.000
          OF    202.000    -10.811      0.000      8.982      0.000      0.000      0.000      0.000      0.036      0.000
          OF    203.000    -10.775      0.000      8.982      0.000      0.000      0.000      0.000      0.036      0.000
          OF    204.000    -10.738      0.000      8.982      0.000      0.000      0.000      0.000      0.037      0.000
          OF    205.000    -10.701      0.000      8.982      0.000      0.000      0.000      0.000      0.037      0.000
          OF    206.000    -10.664      0.000      8.982      0.000      0.000      0.000      0.000      0.037      0.000
          OF    207.000    -10.627      0.000      8.982      0.000      0.000      0.000      0.000      0.037      0.000
          OF    208.000    -10.590      0.000      8.982      0.000      0.000      0.000      0.000      0.037      0.000
          OF    209.000    -10.553      0.000      8.982      0.000      0.000      0.000      0.000      0.037      0.000
          OF    210.000    -10.516      0.000      8.982      0.000      0.000      0.000      0.000      0.037      0.000
          OF    211.000    -10.479      0.000      8.982      0.000      0.000      0.000      0.000      0.037      0.000
          OF    212.000    -10.442      0.000      8.982      0.000      0.000      0.000      0.000      0.037      0.000
          OF    213.000    -10.405      0.000      8.982      0.000      0.000      0.000      0.000      0.037      0.000
          OF    214.000    -10.368      0.000      8.982      0.000      0.000      0.000      0.000      0.037      0.000
          OF    215.000    -10.331      0.000      8.982      0.000      0.000      0.000      0.000      0.036      0.000
          OF    216.000    -10.295      0.000      8.982      0.000      0.000      0.000      0.000      0.036      0.000
          OF    217.000    -10.258      0.000      8.982      0.000      0.000      0.000      0.000      0.037      0.000
          OF    218.000    -10.221      0.000      8.982      0.000      0.000      0.000      0.000      0.037      0.000
          OF    219.000    -10.184      0.000      8.982      0.000      0.000      0.000      0.000      0.037      0.000
          OF    220.000    -10.147      0.000      8.982      0.000      0.000      0.000      0.000      0.037      0.000
          OF    221.000    -10.110      0.000      8.982      0.000      0.000      0.000      0.000      0.037      0.000
          OF    222.000    -10.073      0.000      8.982      0.000      0.000      0.000      0.000      0.037      0.000
          OF    223.000    -10.036      0.000      8.982      0.000      0.000      0.000      0.000      0.037      0.000
          OF    224.000    -10.000      0.000      8.982      0.000      0.000      0.000      0.000      0.037      0.000
          OF    225.000     -9.963      0.000      8.982      0.000      0.000      0.000      0.000      0.037      0.000
          OF    226.000     -9.926      0.000      8.982      0.000      0.000      0.000      0.000      0.037      0.000
          OF    227.000     -9.889      0.000      8.982      0.000      0.000      0.000      0.000      0.037      0.000
          OF    228.000     -9.852      0.000      8.982      0.000      0.000      0.000      0.000      0.037      0.000
          OF    229.000     -9.815      0.000      8.982      0.000      0.000      0.000      0.000      0.037      0.000
          OF    230.000     -9.778      0.000      8.982      0.000      0.000      0.000      0.000      0.037      0.000
          OF    231.000     -9.741      0.000      8.982      0.000      0.000      0.000      0.000      0.037      0.000
          OF    232.000     -9.704      0.000      8.982      0.000      0.000      0.000      0.000      0.037      0.000
          OF    233.000     -9.667      0.000      8.982      0.000      0.000      0.000      0.000      0.037      0.000
          OF    234.000     -9.630      0.000      8.982      0.000      0.000      0.000      0.000      0.037      0.000
          OF    235.000     -9.593      0.000      8.982      0.000      0.000      0.000      0.000      0.037      0.000
          OF    236.000     -9.556      0.000      8.982      0.000      0.000      0.000      0.000      0.037      0.000
          OF    237.000     -9.519      0.000      8.982      0.000      0.000      0.000      0.000      0.037      0.000
          OF    238.000     -9.483      0.000      8.982      0.000      0.000      0.000      0.000      0.037      0.000
          OF    239.000     -9.446      0.000      8.982      0.000      0.000      0.000      0.000      0.037      0.000
          OF    240.000     -9.409      0.000      8.982      0.000      0.000      0.000      0.000      0.035      0.000
          OF    241.000     -9.375      0.000      8.982      0.000      0.000      0.000      0.000      0.034      0.000
          OF    242.000     -9.342      0.000      8.982      0.000      0.000      0.000      0.000      0.033      0.000
          OF    243.000     -9.308      0.000      8.982      0.000      0.000      0.000      0.000      0.033      0.000
          OF    244.000     -9.275      0.000      8.982      0.000      0.000      0.000      0.000      0.033      0.000
          OF    245.000     -9.242      0.000      8.982      0.000      0.000      0.000      0.000      0.033      0.000
          OF    246.000     -9.208      0.000      8.982      0.000      0.000      0.000      0.000      0.033      0.000
          OF    247.000     -9.175      0.000      8.982      0.000      0.000      0.000      0.000      0.035      0.000
          OF    248.000     -9.139      0.000      8.982      0.000      0.000      0.000      0.000      0.036      0.000
          OF    249.000     -9.102      0.000      8.982      0.000      0.000      0.000      0.000      0.037      0.000
          OF    250.000     -9.065      0.000      8.982      0.000      0.000      0.000      0.000      0.036      0.000
          OF    251.000     -9.031      0.000      8.982      0.000      0.000      0.000      0.000      0.034      0.000
          OF    252.000     -8.998      0.000      8.982      0.000      0.000      0.000      0.000      0.033      0.000
          OF    253.000     -8.965      0.000      8.982      0.000      0.000      0.000      0.000      0.033      0.000
          OF    254.000     -8.933      0.000      8.982      0.000      0.000      0.000      0.000      0.033      0.000
          OF    255.000     -8.900      0.000      8.982      0.000      0.000      0.000      0.000      0.033      0.000
          OF    256.000     -8.868      0.000      8.982      0.000      0.000      0.000      0.000      0.032      0.000
          OF    257.000     -8.835      0.000      8.982      0.000      0.000      0.000      0.000      0.033      0.000
          OF    258.000     -8.802      0.000      8.982      0.000      0.000      0.000      0.000      0.033      0.000
          OF    259.000     -8.770      0.000      8.982      0.000      0.000      0.000      0.000      0.033      0.000
          OF    260.000     -8.737      0.000      8.982      0.000      0.000      0.000      0.000      0.033      0.000
          OF    261.000     -8.705      0.000      8.982      0.000      0.000      0.000      0.000      0.033      0.000
          OF    262.000     -8.672      0.000      8.982      0.000      0.000      0.000      0.000      0.033      0.000
          OF    263.000     -8.639      0.000      8.982      0.000      0.000      0.000      0.000      0.033      0.000
          OF    264.000     -8.607      0.000      8.982      0.000      0.000      0.000      0.000      0.032      0.000
          OF    265.000     -8.574      0.000      8.982      0.000      0.000      0.000      0.000      0.032      0.000
          OF    266.000     -8.542      0.000      8.982      0.000      0.000      0.000      0.000      0.033      0.000
          OF    267.000     -8.509      0.000      8.982      0.000      0.000      0.000      0.000      0.033      0.000
          OF    268.000     -8.476      0.000      8.982      0.000      0.000      0.000      0.000      0.033      0.000
          OF    269.000     -8.444      0.000      8.982      0.000      0.000      0.000      0.000      0.033      0.000
          OF    270.000     -8.411      0.000      8.982      0.000      0.000      0.000      0.000      0.033      0.000
          OF    271.000     -8.379      0.000      8.982      0.000      0.000      0.000      0.000      0.033      0.000
          OF    272.000     -8.346      0.000      8.982      0.000      0.000      0.000      0.000      0.033      0.000
          OF    273.000     -8.314      0.000      8.982      0.000      0.000      0.000      0.000      0.033      0.000
          OF    274.000     -8.281      0.000      8.982      0.000      0.000      0.000      0.000      0.033      0.000
          OF    275.000     -8.248      0.000      8.982      0.000      0.000      0.000      0.000      0.033      0.000
          OF    276.000     -8.216      0.000      8.982      0.000      0.000      0.000      0.000      0.033      0.000
          OF    277.000     -8.183      0.000      8.982      0.000      0.000      0.000      0.000      0.033      0.000
          OF    278.000     -8.151      0.000      8.982      0.000      0.000      0.000      0.000      0.033      0.000
          OF    279.000     -8.118      0.000      8.982      0.000      0.000      0.000      0.000      0.033      0.000
          OF    280.000     -8.085      0.000      8.982      0.000      0.000      0.000      0.000      0.033      0.000
          OF    281.000     -8.053      0.000      8.982      0.000      0.000      0.000      0.000      0.033      0.000
          OF    282.000     -8.020      0.000      8.982      0.000      0.000      0.000      0.000      0.033      0.000
          OF    283.000     -7.988      0.000      8.982      0.000      0.000      0.000      0.000      0.033      0.000
          OF    284.000     -7.955      0.000      8.982      0.000      0.000      0.000      0.000      0.033      0.000
          OF    285.000     -7.922      0.000      8.982      0.000      0.000      0.000      0.000      0.033      0.000
          OF    286.000     -7.890      0.000      8.982      0.000      0.000      0.000      0.000      0.033      0.000
          OF    287.000     -7.857      0.000      8.982      0.000      0.000      0.000      0.000      0.033      0.000
          OF    288.000     -7.825      0.000      8.982      0.000      0.000      0.000      0.000      0.033      0.000
          OF    289.000     -7.792      0.000      8.982      0.000      0.000      0.000      0.000      0.033      0.000
          OF    290.000     -7.759      0.000      8.982      0.000      0.000      0.000      0.000      0.033      0.000
          OF    291.000     -7.727      0.000      8.982      0.000      0.000      0.000      0.000      0.033      0.000
          OF    292.000     -7.694      0.000      8.982      0.000      0.000      0.000      0.000      0.032      0.000
          OF    293.000     -7.662      0.000      8.982      0.000      0.000      0.000      0.000      0.033      0.000
          OF    294.000     -7.629      0.000      8.982      0.000      0.000      0.000      0.000      0.033      0.000
          OF    295.000     -7.596      0.000      8.982      0.000      0.000      0.000      0.000      0.033      0.000
          OF    296.000     -7.564      0.000      8.982      0.000      0.000      0.000      0.000      0.033      0.000
          OF    297.000     -7.531      0.000      8.982      0.000      0.000      0.000      0.000      0.033      0.000
          OF    298.000     -7.499      0.000      8.982      0.000      0.000      0.000      0.000      0.033      0.000
          OF    299.000     -7.466      0.000      8.982      0.000      0.000      0.000      0.000      0.033      0.000
          OF    300.000     -7.433      0.000      8.982      0.000      0.000      0.000      0.000      0.032      0.000
          OF    301.000     -7.401      0.000      8.982      0.000      0.000      0.000      0.000      0.033      0.000
          OF    302.000     -7.368      0.000      8.982      0.000      0.000      0.000      0.000      0.033      0.000
          OF    303.000     -7.336      0.000      8.982      0.000      0.000      0.000      0.000      0.033      0.000
          OF    304.000     -7.303      0.000      8.982      0.000      0.000      0.000      0.000      0.033      0.000
          OF    305.000     -7.270      0.000      8.982      0.000      0.000      0.000      0.000      0.033      0.000
          OF    306.000     -7.238      0.000      8.982      0.000      0.000      0.000      0.000      0.033      0.000
          OF    307.000     -7.205      0.000      8.982      0.000      0.000      0.000      0.000      0.033      0.000
          OF    308.000     -7.173      0.000      8.982      0.000      0.000      0.000      0.000      0.033      0.000
          OF    309.000     -7.140      0.000      8.982      0.000      0.000      0.000      0.000      0.032      0.000
          OF    310.000     -7.108      0.000      8.982      0.000      0.000      0.000      0.000      0.033      0.000
          OF    311.000     -7.075      0.000      8.982      0.000      0.000      0.000      0.000      0.033      0.000
          OF    312.000     -7.042      0.000      8.982      0.000      0.000      0.000      0.000      0.033      0.000
          OF    313.000     -7.010      0.000      8.982      0.000      0.000      0.000      0.000      0.033      0.000
          OF    314.000     -6.977      0.000      8.982      0.000      0.000      0.000      0.000      0.033      0.000
          OF    315.000     -6.944      0.000      8.982      0.000      0.000      0.000      0.000      0.033      0.000
          OF    316.000     -6.912      0.000      8.982      0.000      0.000      0.000      0.000      0.033      0.000
          OF    317.000     -6.879      0.000      8.982      0.000      0.000      0.000      0.000      0.032      0.000
          OF    318.000     -6.847      0.000      8.982      0.000      0.000      0.000      0.000      0.033      0.000
          OF    319.000     -6.814      0.000      8.982      0.000      0.000      0.000      0.000      0.033      0.000
          OF    320.000     -6.781      0.000      8.982      0.000      0.000      0.000      0.000      0.033      0.000
          OF    321.000     -6.749      0.000      8.982      0.000      0.000      0.000      0.000      0.033      0.000
          OF    322.000     -6.716      0.000      8.982      0.000      0.000      0.000      0.000      0.033      0.000
          OF    323.000     -6.684      0.000      8.982      0.000      0.000      0.000      0.000      0.033      0.000
          OF    324.000     -6.651      0.000      8.982      0.000      0.000      0.000      0.000      0.033      0.000
          OF    325.000     -6.618      0.000      8.982      0.000      0.000      0.000      0.000      0.033      0.000
          OF    326.000     -6.586      0.000      8.982      0.000      0.000      0.000      0.000      0.033      0.000
          OF    327.000     -6.553      0.000      8.982      0.000      0.000      0.000      0.000      0.033      0.000
          OF    328.000     -6.521      0.000      8.982      0.000      0.000      0.000      0.000      0.032      0.000
          OF    329.000     -6.488      0.000      8.982      0.000      0.000      0.000      0.000      0.033      0.000
          OF    330.000     -6.456      0.000      8.982      0.000      0.000      0.000      0.000      0.033      0.000
          OF    331.000     -6.423      0.000      8.982      0.000      0.000      0.000      0.000      0.033      0.000
          OF    332.000     -6.390      0.000      8.982      0.000      0.000      0.000      0.000      0.033      0.000
          OF    333.000     -6.358      0.000      8.982      0.000      0.000      0.000      0.000      0.033      0.000
          OF    334.000     -6.325      0.000      8.982      0.000      0.000      0.000      0.000      0.033      0.000
          OF    335.000     -6.293      0.000      8.982      0.000      0.000      0.000      0.000      0.033      0.000
          OF    336.000     -6.260      0.000      8.982      0.000      0.000      0.000      0.000      0.034      0.000
          OF    337.000     -6.225      0.000      8.982      0.000      0.000      0.000      0.000      0.036      0.000
          OF    338.000     -6.189      0.000      8.982      0.000      0.000      0.000      0.000      0.036      0.000
          OF    339.000     -6.153      0.000      8.982      0.000      0.000      0.000      0.000      0.036      0.000
          OF    340.000     -6.117      0.000      8.982      0.000      0.000      0.000      0.000      0.036      0.000
          OF    341.000     -6.081      0.000      8.982      0.000      0.000      0.000      0.000      0.036      0.000
          OF    342.000     -6.045      0.000      8.982      0.000      0.000      0.000      0.000      0.036      0.000
          OF    343.000     -6.009      0.000      8.982      0.000      0.000      0.000      0.000      0.036      0.000
          OF    344.000     -5.973      0.000      8.982      0.000      0.000      0.000      0.000      0.036      0.000
          OF    345.000     -5.937      0.000      8.982      0.000      0.000      0.000      0.000      0.036      0.000
          OF    346.000     -5.901      0.000      8.982      0.000      0.000      0.000      0.000      0.036      0.000
          OF    347.000     -5.865      0.000      8.982      0.000      0.000      0.000      0.000      0.036      0.000
          OF    348.000     -5.829      0.000      8.982      0.000      0.000      0.000      0.000      0.036      0.000
          OF    349.000     -5.792      0.000      8.982      0.000      0.000      0.000      0.000      0.036      0.000
          OF    350.000     -5.756      0.000      8.982      0.000      0.000      0.000      0.000      0.036      0.000
          OF    351.000     -5.720      0.000      8.982      0.000      0.000      0.000      0.000      0.036      0.000
          OF    352.000     -5.684      0.000      8.982      0.000      0.000      0.000      0.000      0.036      0.000
          OF    353.000     -5.648      0.000      8.982      0.000      0.000      0.000      0.000      0.036      0.000
          OF    354.000     -5.612      0.000      8.982      0.000      0.000      0.000      0.000      0.036      0.000
          OF    355.000     -5.576      0.000      8.982      0.000      0.000      0.000      0.000      0.036      0.000
          OF    356.000     -5.540      0.000      8.982      0.000      0.000      0.000      0.000      0.036      0.000
          OF    357.000     -5.504      0.000      8.982      0.000      0.000      0.000      0.000      0.036      0.000
          OF    358.000     -5.468      0.000      8.982      0.000      0.000      0.000      0.000      0.036      0.000
          OF    359.000     -5.432      0.000      8.982      0.000      0.000      0.000      0.000      0.036      0.000
          OF    360.000     -5.396      0.000      8.982      0.000      0.000      0.000      0.000      0.036      0.000
          OF    361.000     -5.360      0.000      8.982      0.000      0.000      0.000      0.000      0.036      0.000
          OF    362.000     -5.324      0.000      8.982      0.000      0.000      0.000      0.000      0.036      0.000
          OF    363.000     -5.288      0.000      8.982      0.000      0.000      0.000      0.000      0.036      0.000
          OF    364.000     -5.252      0.000      8.982      0.000      0.000      0.000      0.000      0.036      0.000
          OF    365.000     -5.216      0.000      8.982      0.000      0.000      0.000      0.000      0.036      0.000
          OF    366.000     -5.180      0.000      8.982      0.000      0.000      0.000      0.000      0.036      0.000
          OF    367.000     -5.144      0.000      8.982      0.000      0.000      0.000      0.000      0.036      0.000
          OF    368.000     -5.108      0.000      8.982      0.000      0.000      0.000      0.000      0.036      0.000
          OF    369.000     -5.072      0.000      8.982      0.000      0.000      0.000      0.000      0.036      0.000
          OF    370.000     -5.036      0.000      8.982      0.000      0.000      0.000      0.000      0.036      0.000
          OF    371.000     -5.000      0.000      8.982      0.000      0.000      0.000      0.000      0.036      0.000
          OF    372.000     -4.964      0.000      8.982      0.000      0.000      0.000      0.000      0.036      0.000
          OF    373.000     -4.928      0.000      8.982      0.000      0.000      0.000      0.000      0.036      0.000
          OF    374.000     -4.892      0.000      8.982      0.000      0.000      0.000      0.000      0.036      0.000
          OF    375.000     -4.856      0.000      8.982      0.000      0.000      0.000      0.000      0.036      0.000
          OF    376.000     -4.820      0.000      8.982      0.000      0.000      0.000      0.000      0.036      0.000
          OF    377.000     -4.784      0.000      8.982      0.000      0.000      0.000      0.000      0.036      0.000
          OF    378.000     -4.748      0.000      8.982      0.000      0.000      0.000      0.000      0.036      0.000
          OF    379.000     -4.712      0.000      8.982      0.000      0.000      0.000      0.000      0.036      0.000
          OF    380.000     -4.676      0.000      8.982      0.000      0.000      0.000      0.000      0.036      0.000
          OF    381.000     -4.640      0.000      8.982      0.000      0.000      0.000      0.000      0.036      0.000
          OF    382.000     -4.604      0.000      8.982      0.000      0.000      0.000      0.000      0.036      0.000
          OF    383.000     -4.568      0.000      8.982      0.000      0.000      0.000      0.000      0.036      0.000
          OF    384.000     -4.532      0.000      8.982      0.000      0.000      0.000      0.000      0.036      0.000
          OF    385.000     -4.496      0.000      8.982      0.000      0.000      0.000      0.000      0.036      0.000
          OF    386.000     -4.460      0.000      8.982      0.000      0.000      0.000      0.000      0.036      0.000
          OF    387.000     -4.424      0.000      8.982      0.000      0.000      0.000      0.000      0.036      0.000
          OF    389.000     -4.352      0.000      8.982      0.000      0.000      0.000      0.000      0.036      0.000
          OF    390.000     -4.315      0.000      8.982      0.000      0.000      0.000      0.000      0.036      0.000
          OF    392.000     -4.245      0.000      8.982      0.000      0.000      0.000      0.000      0.035      0.000
          OF    393.000     -4.211      0.000      8.982      0.000      0.000      0.000      0.000      0.034      0.000
          OF    395.000     -4.143      0.000      8.982      0.000      0.000      0.000      0.000      0.034      0.000
          OF    396.000     -4.109      0.000      8.982      0.000      0.000      0.000      0.000      0.034      0.000
          OF    398.000     -4.042      0.000      8.982      0.000      0.000      0.000      0.000      0.034      0.000
          OF    399.000     -4.007      0.000      8.982      0.000      0.000      0.000      0.000      0.034      0.000
          OF    401.000     -3.940      0.000      8.982      0.000      0.000      0.000      0.000      0.034      0.000
          OF    402.000     -3.906      0.000      8.982      0.000      0.000      0.000      0.000      0.034      0.000
          OF    404.000     -3.838      0.000      8.982      0.000      0.000      0.000      0.000      0.034      0.000
          OF    405.000     -3.804      0.000      8.982      0.000      0.000      0.000      0.000      0.034      0.000
          OF    407.000     -3.736      0.000      8.982      0.000      0.000      0.000      0.000      0.034      0.000
          OF    408.000     -3.702      0.000      8.982      0.000      0.000      0.000      0.000      0.034      0.000
          OF    410.000     -3.634      0.000      8.982      0.000      0.000      0.000      0.000      0.034      0.000
          OF    411.000     -3.600      0.000      8.982      0.000      0.000      0.000      0.000      0.034      0.000
          OF    413.000     -3.533      0.000      8.982      0.000      0.000      0.000      0.000      0.034      0.000
          OF    414.000     -3.499      0.000      8.982      0.000      0.000      0.000      0.000      0.034      0.000
          OF    416.000     -3.431      0.000      8.982      0.000      0.000      0.000      0.000      0.034      0.000
          OF    417.000     -3.397      0.000      8.982      0.000      0.000      0.000      0.000      0.034      0.000
          OF    419.000     -3.329      0.000      8.982      0.000      0.000      0.000      0.000      0.034      0.000
          OF    420.000     -3.295      0.000      8.982      0.000      0.000      0.000      0.000      0.034      0.000
          OF    422.000     -3.227      0.000      8.982      0.000      0.000      0.000      0.000      0.034      0.000
          OF    423.000     -3.193      0.000      8.982      0.000      0.000      0.000      0.000      0.034      0.000
          OF    425.000     -3.125      0.000      8.982      0.000      0.000      0.000      0.000      0.034      0.000
          OF    426.000     -3.091      0.000      8.982      0.000      0.000      0.000      0.000      0.037      0.000
          IF    591.000      2.950      0.000      8.981      0.000      0.000      0.000      0.000      0.037      0.000
          IF    592.000      2.983      0.000      8.981      0.000      0.000      0.000      0.000      0.008      0.000
          IF    748.000      4.247      0.000      8.983      0.000      0.000      0.000      0.000      0.008      0.000
          IF    751.300      4.273      0.000      8.984      0.000      0.000      0.000      0.000      0.008      0.000
          IF    754.600      4.300      0.000      8.984      0.000      0.000      0.000      0.000      0.008      0.000
          IF    757.900      4.326      0.000      8.985      0.000      0.000      0.000      0.000      0.008      0.000
          IF    761.200      4.353      0.000      8.985      0.000      0.000      0.000      0.000      0.008      0.000
          IF    764.400      4.380      0.000      8.986      0.000      0.000      0.000      0.000      0.008      0.000
          IF    767.700      4.406      0.000      8.986      0.000      0.000      0.000      0.000      0.008      0.000
          IF    771.000      4.433      0.000      8.987      0.000      0.000      0.000      0.000      0.008      0.000
          IF    774.300      4.459      0.000      8.987      0.000      0.000      0.000      0.000      0.008      0.000
          IF    777.600      4.486      0.000      8.988      0.000      0.000      0.000      0.000      0.008      0.000
          IF    780.800      4.513      0.000      8.988      0.000      0.000      0.000      0.000      0.008      0.000
          IF    784.100      4.539      0.000      8.989      0.000      0.000      0.000      0.000      0.008      0.000
          IF    787.400      4.566      0.000      8.990      0.000      0.000      0.000      0.000      0.008      0.000
          IF    790.700      4.592      0.000      8.990      0.000      0.000      0.000      0.000      0.008      0.000
          IF    794.000      4.619      0.000      8.991      0.000      0.000      0.000      0.000      0.008      0.000
          IF    797.200      4.646      0.000      8.991      0.000      0.000      0.000      0.000      0.008      0.000
          IF    800.500      4.672      0.000      8.992      0.000      0.000      0.000      0.000      0.008      0.000
          IF    803.800      4.699      0.000      8.993      0.000      0.000      0.000      0.000      0.008      0.000
          IF    807.100      4.725      0.000      8.993      0.000      0.000      0.000      0.000      0.008      0.000
          IF    810.400      4.752      0.000      8.994      0.000      0.000      0.000      0.000      0.008      0.000
          IF    813.600      4.778      0.000      8.995      0.000      0.000      0.000      0.000      0.008      0.000
          IF    816.900      4.805      0.000      8.995      0.000      0.000      0.000      0.000      0.008      0.000
          IF    820.200      4.832      0.000      8.996      0.000      0.000      0.000      0.000      0.008      0.000
          IF    823.500      4.858      0.000      8.997      0.000      0.000      0.000      0.000      0.008      0.000
          IF    826.800      4.885      0.000      8.997      0.000      0.000      0.000      0.000      0.008      0.000
          IF    830.100      4.911      0.000      8.998      0.000      0.000      0.000      0.000      0.008      0.000
          IF    833.300      4.938      0.000      8.998      0.000      0.000      0.000      0.000      0.008      0.000
          IF    836.600      4.964      0.000      8.999      0.000      0.000      0.000      0.000      0.008      0.000
          IF    839.900      4.991      0.000      9.000      0.000      0.000      0.000      0.000      0.008      0.000
          IF    843.200      5.018      0.000      9.000      0.000      0.000      0.000      0.000      0.008      0.000
          IF    846.500      5.044      0.000      9.001      0.000      0.000      0.000      0.000      0.008      0.000
          IF    849.700      5.071      0.000      9.002      0.000      0.000      0.000      0.000      0.008      0.000
          IF    853.000      5.097      0.000      9.002      0.000      0.000      0.000      0.000      0.008      0.000
          IF    856.300      5.124      0.000      9.003      0.000      0.000      0.000      0.000      0.008      0.000
          IF    859.600      5.150      0.000      9.003      0.000      0.000      0.000      0.000      0.008      0.000
          IF    862.900      5.177      0.000      9.004      0.000      0.000      0.000      0.000      0.008      0.000
          IF    866.100      5.204      0.000      9.005      0.000      0.000      0.000      0.000      0.008      0.000
          IF    869.400      5.230      0.000      9.005      0.000      0.000      0.000      0.000      0.008      0.000
          IF    872.700      5.257      0.000      9.006      0.000      0.000      0.000      0.000      0.008      0.000
          IF    876.000      5.283      0.000      9.007      0.000      0.000      0.000      0.000      0.008      0.000
          IF    879.300      5.310      0.000      9.007      0.000      0.000      0.000      0.000      0.008      0.000
          IF    882.500      5.337      0.000      9.008      0.000      0.000      0.000      0.000      0.008      0.000
          IF    885.800      5.363      0.000      9.008      0.000      0.000      0.000      0.000      0.008      0.000
          IF    889.100      5.390      0.000      9.009      0.000      0.000      0.000      0.000      0.090      0.000
          IF    892.400      5.954      0.000      9.006      0.000      0.000      0.000      0.000      0.201      0.000
          IF    895.700      6.719      0.000      9.004      0.000      0.000      0.000      0.000      0.235      0.000
          IF    898.900      7.485      0.000      9.019      0.000      0.000      0.000      0.000      0.235      0.000
          IF    902.200      8.250      0.000      9.072      0.000      0.000      0.000      0.000      0.231      0.000
          IF    903.500      8.547      0.000      9.072      0.000      0.000      0.000      0.000      0.257      0.000
          IF    905.400      9.072      0.000      9.072      0.000      0.000      0.000      0.000      0.276      0.000
          ET      0.000      0.000      0.000      0.000      0.000      0.000      0.000      0.000      0.000      0.000
1


            END        END      FETCH SURGE ELEV SURGE ELEV    INITIAL    INITIAL                BOTTOM    AVERAGE
        STATION  ELEVATION     LENGTH    10-YEAR   100-YEAR WAVE HEIGHT  W. PERIOD                SLOPE    A-ZONES
  IE      0.000    -21.564      1.000      1.000      8.983      4.181      3.400     56.140      0.042      0.000


            END        END  NEW SURGE  NEW SURGE                                                 BOTTOM    AVERAGE
        STATION  ELEVATION    10-YEAR   100-YEAR                                                  SLOPE    A-ZONES
  OF      1.000    -21.522      0.000      8.983      0.000      0.000      0.000      0.000      0.041      0.000


            END        END  NEW SURGE  NEW SURGE                                                 BOTTOM    AVERAGE
        STATION  ELEVATION    10-YEAR   100-YEAR                                                  SLOPE    A-ZONES
  OF      2.000    -21.481      0.000      8.983      0.000      0.000      0.000      0.000      0.041      0.000


            END        END  NEW SURGE  NEW SURGE                                                 BOTTOM    AVERAGE
        STATION  ELEVATION    10-YEAR   100-YEAR                                                  SLOPE    A-ZONES
  OF      3.000    -21.439      0.000      8.983      0.000      0.000      0.000      0.000      0.042      0.000


            END        END  NEW SURGE  NEW SURGE                                                 BOTTOM    AVERAGE
        STATION  ELEVATION    10-YEAR   100-YEAR                                                  SLOPE    A-ZONES
  OF      4.000    -21.397      0.000      8.983      0.000      0.000      0.000      0.000      0.042      0.000


            END        END  NEW SURGE  NEW SURGE                                                 BOTTOM    AVERAGE
        STATION  ELEVATION    10-YEAR   100-YEAR                                                  SLOPE    A-ZONES
  OF      5.000    -21.355      0.000      8.983      0.000      0.000      0.000      0.000      0.042      0.000


            END        END  NEW SURGE  NEW SURGE                                                 BOTTOM    AVERAGE
        STATION  ELEVATION    10-YEAR   100-YEAR                                                  SLOPE    A-ZONES
  OF      6.000    -21.313      0.000      8.983      0.000      0.000      0.000      0.000      0.041      0.000


            END        END  NEW SURGE  NEW SURGE                                                 BOTTOM    AVERAGE
        STATION  ELEVATION    10-YEAR   100-YEAR                                                  SLOPE    A-ZONES
  OF      7.000    -21.272      0.000      8.983      0.000      0.000      0.000      0.000      0.041      0.000


            END        END  NEW SURGE  NEW SURGE                                                 BOTTOM    AVERAGE
        STATION  ELEVATION    10-YEAR   100-YEAR                                                  SLOPE    A-ZONES
  OF      8.000    -21.230      0.000      8.983      0.000      0.000      0.000      0.000      0.042      0.000


            END        END  NEW SURGE  NEW SURGE                                                 BOTTOM    AVERAGE
        STATION  ELEVATION    10-YEAR   100-YEAR                                                  SLOPE    A-ZONES
  OF      9.000    -21.188      0.000      8.983      0.000      0.000      0.000      0.000      0.042      0.000


            END        END  NEW SURGE  NEW SURGE                                                 BOTTOM    AVERAGE
        STATION  ELEVATION    10-YEAR   100-YEAR                                                  SLOPE    A-ZONES
  OF     10.000    -21.146      0.000      8.983      0.000      0.000      0.000      0.000      0.042      0.000


            END        END  NEW SURGE  NEW SURGE                                                 BOTTOM    AVERAGE
        STATION  ELEVATION    10-YEAR   100-YEAR                                                  SLOPE    A-ZONES
  OF     11.000    -21.104      0.000      8.983      0.000      0.000      0.000      0.000      0.042      0.000


            END        END  NEW SURGE  NEW SURGE                                                 BOTTOM    AVERAGE
        STATION  ELEVATION    10-YEAR   100-YEAR                                                  SLOPE    A-ZONES
  OF     12.000    -21.062      0.000      8.983      0.000      0.000      0.000      0.000      0.041      0.000


            END        END  NEW SURGE  NEW SURGE                                                 BOTTOM    AVERAGE
        STATION  ELEVATION    10-YEAR   100-YEAR                                                  SLOPE    A-ZONES
  OF     13.000    -21.021      0.000      8.983      0.000      0.000      0.000      0.000      0.041      0.000


            END        END  NEW SURGE  NEW SURGE                                                 BOTTOM    AVERAGE
        STATION  ELEVATION    10-YEAR   100-YEAR                                                  SLOPE    A-ZONES
  OF     14.000    -20.979      0.000      8.983      0.000      0.000      0.000      0.000      0.042      0.000


            END        END  NEW SURGE  NEW SURGE                                                 BOTTOM    AVERAGE
        STATION  ELEVATION    10-YEAR   100-YEAR                                                  SLOPE    A-ZONES
  OF     15.000    -20.937      0.000      8.983      0.000      0.000      0.000      0.000      0.042      0.000


            END        END  NEW SURGE  NEW SURGE                                                 BOTTOM    AVERAGE
        STATION  ELEVATION    10-YEAR   100-YEAR                                                  SLOPE    A-ZONES
  OF     16.000    -20.895      0.000      8.983      0.000      0.000      0.000      0.000      0.042      0.000


            END        END  NEW SURGE  NEW SURGE                                                 BOTTOM    AVERAGE
        STATION  ELEVATION    10-YEAR   100-YEAR                                                  SLOPE    A-ZONES
  OF     17.000    -20.853      0.000      8.983      0.000      0.000      0.000      0.000      0.041      0.000


            END        END  NEW SURGE  NEW SURGE                                                 BOTTOM    AVERAGE
        STATION  ELEVATION    10-YEAR   100-YEAR                                                  SLOPE    A-ZONES
  OF     18.000    -20.812      0.000      8.983      0.000      0.000      0.000      0.000      0.041      0.000


            END        END  NEW SURGE  NEW SURGE                                                 BOTTOM    AVERAGE
        STATION  ELEVATION    10-YEAR   100-YEAR                                                  SLOPE    A-ZONES
  OF     19.000    -20.770      0.000      8.983      0.000      0.000      0.000      0.000      0.042      0.000


            END        END  NEW SURGE  NEW SURGE                                                 BOTTOM    AVERAGE
        STATION  ELEVATION    10-YEAR   100-YEAR                                                  SLOPE    A-ZONES
  OF     20.000    -20.728      0.000      8.983      0.000      0.000      0.000      0.000      0.042      0.000


            END        END  NEW SURGE  NEW SURGE                                                 BOTTOM    AVERAGE
        STATION  ELEVATION    10-YEAR   100-YEAR                                                  SLOPE    A-ZONES
  OF     21.000    -20.686      0.000      8.983      0.000      0.000      0.000      0.000      0.042      0.000


            END        END  NEW SURGE  NEW SURGE                                                 BOTTOM    AVERAGE
        STATION  ELEVATION    10-YEAR   100-YEAR                                                  SLOPE    A-ZONES
  OF     22.000    -20.644      0.000      8.983      0.000      0.000      0.000      0.000      0.042      0.000


            END        END  NEW SURGE  NEW SURGE                                                 BOTTOM    AVERAGE
        STATION  ELEVATION    10-YEAR   100-YEAR                                                  SLOPE    A-ZONES
  OF     23.000    -20.602      0.000      8.983      0.000      0.000      0.000      0.000      0.041      0.000


            END        END  NEW SURGE  NEW SURGE                                                 BOTTOM    AVERAGE
        STATION  ELEVATION    10-YEAR   100-YEAR                                                  SLOPE    A-ZONES
  OF     24.000    -20.561      0.000      8.983      0.000      0.000      0.000      0.000      0.041      0.000


            END        END  NEW SURGE  NEW SURGE                                                 BOTTOM    AVERAGE
        STATION  ELEVATION    10-YEAR   100-YEAR                                                  SLOPE    A-ZONES
  OF     25.000    -20.519      0.000      8.983      0.000      0.000      0.000      0.000      0.042      0.000


            END        END  NEW SURGE  NEW SURGE                                                 BOTTOM    AVERAGE
        STATION  ELEVATION    10-YEAR   100-YEAR                                                  SLOPE    A-ZONES
  OF     26.000    -20.477      0.000      8.983      0.000      0.000      0.000      0.000      0.042      0.000


            END        END  NEW SURGE  NEW SURGE                                                 BOTTOM    AVERAGE
        STATION  ELEVATION    10-YEAR   100-YEAR                                                  SLOPE    A-ZONES
  OF     27.000    -20.435      0.000      8.983      0.000      0.000      0.000      0.000      0.042      0.000


            END        END  NEW SURGE  NEW SURGE                                                 BOTTOM    AVERAGE
        STATION  ELEVATION    10-YEAR   100-YEAR                                                  SLOPE    A-ZONES
  OF     28.000    -20.393      0.000      8.983      0.000      0.000      0.000      0.000      0.041      0.000


            END        END  NEW SURGE  NEW SURGE                                                 BOTTOM    AVERAGE
        STATION  ELEVATION    10-YEAR   100-YEAR                                                  SLOPE    A-ZONES
  OF     29.000    -20.352      0.000      8.983      0.000      0.000      0.000      0.000      0.041      0.000


            END        END  NEW SURGE  NEW SURGE                                                 BOTTOM    AVERAGE
        STATION  ELEVATION    10-YEAR   100-YEAR                                                  SLOPE    A-ZONES
  OF     30.000    -20.310      0.000      8.983      0.000      0.000      0.000      0.000      0.042      0.000


            END        END  NEW SURGE  NEW SURGE                                                 BOTTOM    AVERAGE
        STATION  ELEVATION    10-YEAR   100-YEAR                                                  SLOPE    A-ZONES
  OF     31.000    -20.268      0.000      8.983      0.000      0.000      0.000      0.000      0.042      0.000


            END        END  NEW SURGE  NEW SURGE                                                 BOTTOM    AVERAGE
        STATION  ELEVATION    10-YEAR   100-YEAR                                                  SLOPE    A-ZONES
  OF     32.000    -20.226      0.000      8.983      0.000      0.000      0.000      0.000      0.042      0.000


            END        END  NEW SURGE  NEW SURGE                                                 BOTTOM    AVERAGE
        STATION  ELEVATION    10-YEAR   100-YEAR                                                  SLOPE    A-ZONES
  OF     33.000    -20.184      0.000      8.983      0.000      0.000      0.000      0.000      0.042      0.000


            END        END  NEW SURGE  NEW SURGE                                                 BOTTOM    AVERAGE
        STATION  ELEVATION    10-YEAR   100-YEAR                                                  SLOPE    A-ZONES
  OF     34.000    -20.142      0.000      8.983      0.000      0.000      0.000      0.000      0.041      0.000


            END        END  NEW SURGE  NEW SURGE                                                 BOTTOM    AVERAGE
        STATION  ELEVATION    10-YEAR   100-YEAR                                                  SLOPE    A-ZONES
  OF     35.000    -20.101      0.000      8.983      0.000      0.000      0.000      0.000      0.041      0.000


            END        END  NEW SURGE  NEW SURGE                                                 BOTTOM    AVERAGE
        STATION  ELEVATION    10-YEAR   100-YEAR                                                  SLOPE    A-ZONES
  OF     36.000    -20.059      0.000      8.983      0.000      0.000      0.000      0.000      0.042      0.000


            END        END  NEW SURGE  NEW SURGE                                                 BOTTOM    AVERAGE
        STATION  ELEVATION    10-YEAR   100-YEAR                                                  SLOPE    A-ZONES
  OF     37.000    -20.017      0.000      8.983      0.000      0.000      0.000      0.000      0.042      0.000


            END        END  NEW SURGE  NEW SURGE                                                 BOTTOM    AVERAGE
        STATION  ELEVATION    10-YEAR   100-YEAR                                                  SLOPE    A-ZONES
  OF     38.000    -19.975      0.000      8.983      0.000      0.000      0.000      0.000      0.042      0.000


            END        END  NEW SURGE  NEW SURGE                                                 BOTTOM    AVERAGE
        STATION  ELEVATION    10-YEAR   100-YEAR                                                  SLOPE    A-ZONES
  OF     39.000    -19.933      0.000      8.983      0.000      0.000      0.000      0.000      0.041      0.000


            END        END  NEW SURGE  NEW SURGE                                                 BOTTOM    AVERAGE
        STATION  ELEVATION    10-YEAR   100-YEAR                                                  SLOPE    A-ZONES
  OF     40.000    -19.892      0.000      8.983      0.000      0.000      0.000      0.000      0.041      0.000


            END        END  NEW SURGE  NEW SURGE                                                 BOTTOM    AVERAGE
        STATION  ELEVATION    10-YEAR   100-YEAR                                                  SLOPE    A-ZONES
  OF     41.000    -19.850      0.000      8.983      0.000      0.000      0.000      0.000      0.042      0.000


            END        END  NEW SURGE  NEW SURGE                                                 BOTTOM    AVERAGE
        STATION  ELEVATION    10-YEAR   100-YEAR                                                  SLOPE    A-ZONES
  OF     42.000    -19.808      0.000      8.983      0.000      0.000      0.000      0.000      0.042      0.000


            END        END  NEW SURGE  NEW SURGE                                                 BOTTOM    AVERAGE
        STATION  ELEVATION    10-YEAR   100-YEAR                                                  SLOPE    A-ZONES
  OF     43.000    -19.766      0.000      8.983      0.000      0.000      0.000      0.000      0.042      0.000


            END        END  NEW SURGE  NEW SURGE                                                 BOTTOM    AVERAGE
        STATION  ELEVATION    10-YEAR   100-YEAR                                                  SLOPE    A-ZONES
  OF     44.000    -19.724      0.000      8.983      0.000      0.000      0.000      0.000      0.041      0.000


            END        END  NEW SURGE  NEW SURGE                                                 BOTTOM    AVERAGE
        STATION  ELEVATION    10-YEAR   100-YEAR                                                  SLOPE    A-ZONES
  OF     45.000    -19.683      0.000      8.983      0.000      0.000      0.000      0.000      0.041      0.000


            END        END  NEW SURGE  NEW SURGE                                                 BOTTOM    AVERAGE
        STATION  ELEVATION    10-YEAR   100-YEAR                                                  SLOPE    A-ZONES
  OF     46.000    -19.641      0.000      8.983      0.000      0.000      0.000      0.000      0.042      0.000


            END        END  NEW SURGE  NEW SURGE                                                 BOTTOM    AVERAGE
        STATION  ELEVATION    10-YEAR   100-YEAR                                                  SLOPE    A-ZONES
  OF     47.000    -19.599      0.000      8.983      0.000      0.000      0.000      0.000      0.042      0.000


            END        END  NEW SURGE  NEW SURGE                                                 BOTTOM    AVERAGE
        STATION  ELEVATION    10-YEAR   100-YEAR                                                  SLOPE    A-ZONES
  OF     48.000    -19.557      0.000      8.983      0.000      0.000      0.000      0.000      0.042      0.000


            END        END  NEW SURGE  NEW SURGE                                                 BOTTOM    AVERAGE
        STATION  ELEVATION    10-YEAR   100-YEAR                                                  SLOPE    A-ZONES
  OF     49.000    -19.515      0.000      8.983      0.000      0.000      0.000      0.000      0.042      0.000


            END        END  NEW SURGE  NEW SURGE                                                 BOTTOM    AVERAGE
        STATION  ELEVATION    10-YEAR   100-YEAR                                                  SLOPE    A-ZONES
  OF     50.000    -19.473      0.000      8.983      0.000      0.000      0.000      0.000      0.041      0.000


            END        END  NEW SURGE  NEW SURGE                                                 BOTTOM    AVERAGE
        STATION  ELEVATION    10-YEAR   100-YEAR                                                  SLOPE    A-ZONES
  OF     51.000    -19.432      0.000      8.983      0.000      0.000      0.000      0.000      0.041      0.000


            END        END  NEW SURGE  NEW SURGE                                                 BOTTOM    AVERAGE
        STATION  ELEVATION    10-YEAR   100-YEAR                                                  SLOPE    A-ZONES
  OF     52.000    -19.390      0.000      8.983      0.000      0.000      0.000      0.000      0.042      0.000


            END        END  NEW SURGE  NEW SURGE                                                 BOTTOM    AVERAGE
        STATION  ELEVATION    10-YEAR   100-YEAR                                                  SLOPE    A-ZONES
  OF     53.000    -19.348      0.000      8.983      0.000      0.000      0.000      0.000      0.042      0.000


            END        END  NEW SURGE  NEW SURGE                                                 BOTTOM    AVERAGE
        STATION  ELEVATION    10-YEAR   100-YEAR                                                  SLOPE    A-ZONES
  OF     54.000    -19.306      0.000      8.983      0.000      0.000      0.000      0.000      0.042      0.000


            END        END  NEW SURGE  NEW SURGE                                                 BOTTOM    AVERAGE
        STATION  ELEVATION    10-YEAR   100-YEAR                                                  SLOPE    A-ZONES
  OF     55.000    -19.264      0.000      8.983      0.000      0.000      0.000      0.000      0.043      0.000


            END        END  NEW SURGE  NEW SURGE                                                 BOTTOM    AVERAGE
        STATION  ELEVATION    10-YEAR   100-YEAR                                                  SLOPE    A-ZONES
  OF     56.000    -19.220      0.000      8.983      0.000      0.000      0.000      0.000      0.045      0.000


            END        END  NEW SURGE  NEW SURGE                                                 BOTTOM    AVERAGE
        STATION  ELEVATION    10-YEAR   100-YEAR                                                  SLOPE    A-ZONES
  OF     57.000    -19.175      0.000      8.983      0.000      0.000      0.000      0.000      0.045      0.000


            END        END  NEW SURGE  NEW SURGE                                                 BOTTOM    AVERAGE
        STATION  ELEVATION    10-YEAR   100-YEAR                                                  SLOPE    A-ZONES
  OF     58.000    -19.131      0.000      8.983      0.000      0.000      0.000      0.000      0.044      0.000


            END        END  NEW SURGE  NEW SURGE                                                 BOTTOM    AVERAGE
        STATION  ELEVATION    10-YEAR   100-YEAR                                                  SLOPE    A-ZONES
  OF     59.000    -19.087      0.000      8.983      0.000      0.000      0.000      0.000      0.044      0.000


            END        END  NEW SURGE  NEW SURGE                                                 BOTTOM    AVERAGE
        STATION  ELEVATION    10-YEAR   100-YEAR                                                  SLOPE    A-ZONES
  OF     60.000    -19.043      0.000      8.983      0.000      0.000      0.000      0.000      0.044      0.000


            END        END  NEW SURGE  NEW SURGE                                                 BOTTOM    AVERAGE
        STATION  ELEVATION    10-YEAR   100-YEAR                                                  SLOPE    A-ZONES
  OF     61.000    -18.999      0.000      8.983      0.000      0.000      0.000      0.000      0.044      0.000


            END        END  NEW SURGE  NEW SURGE                                                 BOTTOM    AVERAGE
[...]

                                        OF     408.00         3.98         3.43        11.77

                                        OF     410.00         3.98         3.43        11.77

                                        OF     411.00         3.98         3.43        11.77

                                        OF     413.00         3.98         3.43        11.77

                                        OF     414.00         3.98         3.43        11.77

                                        OF     416.00         3.98         3.43        11.77

                                        OF     417.00         3.98         3.43        11.77

                                        OF     419.00         3.98         3.43        11.77

                                        OF     420.00         3.98         3.43        11.77

                                        OF     422.00         3.98         3.43        11.77

                                        OF     423.00         3.98         3.43        11.77

                                        OF     425.00         3.98         3.43        11.77

                                        OF     426.00         3.98         3.43        11.77

                                               541.50         4.03         3.44        11.80

                                        IF     591.00         3.92         3.44        11.73

                                        IF     592.00         3.93         3.44        11.73

                                               701.20         3.50         3.45        11.43

                                        IF     748.00         3.27         3.45        11.27

                                        IF     751.30         3.26         3.45        11.26

                                        IF     754.60         3.24         3.45        11.25

                                        IF     757.90         3.23         3.45        11.24

                                        IF     761.20         3.21         3.45        11.23

                                        IF     764.40         3.19         3.45        11.22

                                        IF     767.70         3.18         3.45        11.21

                                        IF     771.00         3.16         3.45        11.20

                                        IF     774.30         3.15         3.45        11.19

                                        IF     777.60         3.13         3.45        11.18

                                        IF     780.80         3.11         3.45        11.17

                                        IF     784.10         3.10         3.45        11.16

                                        IF     787.40         3.08         3.45        11.15

                                        IF     790.70         3.07         3.45        11.14

                                        IF     794.00         3.05         3.45        11.13

                                        IF     797.20         3.03         3.46        11.12

                                        IF     800.50         3.02         3.46        11.11

                                        IF     803.80         3.00         3.46        11.09

                                        IF     807.10         2.99         3.46        11.08

                                        IF     810.40         2.97         3.46        11.07

                                        IF     813.60         2.96         3.46        11.06

                                        IF     816.90         2.94         3.46        11.05

                                        IF     820.20         2.92         3.46        11.04

                                        IF     823.50         2.91         3.46        11.03

                                        IF     826.80         2.89         3.46        11.02

                                        IF     830.10         2.87         3.46        11.01

                                        IF     833.30         2.86         3.46        11.00

                                        IF     836.60         2.84         3.46        10.99

                                        IF     839.90         2.82         3.46        10.98

                                        IF     843.20         2.81         3.46        10.97

                                        IF     846.50         2.79         3.46        10.96

                                        IF     849.70         2.78         3.46        10.94

                                        IF     853.00         2.76         3.46        10.93

                                        IF     856.30         2.74         3.46        10.92

                                        IF     859.60         2.73         3.46        10.91

                                        IF     862.90         2.71         3.46        10.90

                                        IF     866.10         2.69         3.46        10.89

                                        IF     869.40         2.68         3.46        10.88

                                        IF     872.70         2.66         3.46        10.87

                                        IF     876.00         2.64         3.46        10.86

                                        IF     879.30         2.63         3.46        10.85

                                        IF     882.50         2.61         3.46        10.83

                                        IF     885.80         2.59         3.46        10.82

                                        IF     889.10         2.58         3.46        10.81

                                        IF     892.40         2.20         3.46        10.55

                                        IF     895.70         1.68         3.46        10.18

                                        IF     898.90         1.15         3.46         9.82

                                        IF     902.20         0.63         3.46         9.51

                                        IF     903.50         0.40         3.46         9.35

                                        IF     905.40         0.01         3.46         9.08



                                        PART3 LOCATION OF AREAS ABOVE 100-YEAR SURGE

                                        NO AREAS ABOVE 100-YEAR SURGE IN THIS TRANSECT



                                                  PART4 LOCATION OF SURGE CHANGES

                                        STATION          10-YEAR SURGE          100-YEAR SURGE

                                        125.00                 1.00                 8.98

                                        591.00                 1.00                 8.98

                                        748.00                 1.00                 8.98

                                        751.30                 1.00                 8.98

                                        757.90                 1.00                 8.98

                                        764.40                 1.00                 8.99

                                        771.00                 1.00                 8.99

                                        777.60                 1.00                 8.99

                                        784.10                 1.00                 8.99

                                        787.40                 1.00                 8.99

                                        794.00                 1.00                 8.99

                                        800.50                 1.00                 8.99

                                        803.80                 1.00                 8.99

                                        810.40                 1.00                 8.99

                                        813.60                 1.00                 8.99

                                        820.20                 1.00                 9.00

                                        823.50                 1.00                 9.00

                                        830.10                 1.00                 9.00

                                        836.60                 1.00                 9.00

                                        839.90                 1.00                 9.00

                                        846.50                 1.00                 9.00

                                        849.70                 1.00                 9.00

                                        856.30                 1.00                 9.00

                                        862.90                 1.00                 9.00

                                        866.10                 1.00                 9.01

                                        872.70                 1.00                 9.01

                                        876.00                 1.00                 9.01

                                        882.50                 1.00                 9.01

                                        889.10                 1.00                 9.01

                                        892.40                 1.00                 9.01

                                        895.70                 1.00                 9.00

                                        898.90                 1.00                 9.02

                                        902.20                 1.00                 9.07



                                                       PART5  LOCATION OF V ZONES

                                             STATION OF GUTTER          LOCATION OF ZONE

                                                      804.38               WINDWARD



                                                   PART6 NUMBERED A ZONES AND V ZONES

                                        STATION OF GUTTER  ELEVATION  ZONE DESIGNATION   FHF


                                               0.00          11.91

                                                                          V22  EL=12     120

                                             124.00          11.90

                                                                          V22  EL=12     120

                                             125.00          11.90

                                                                          V22  EL=12     120

                                             426.00          11.77

                                                                          V22  EL=12     120

                                             591.00          11.73

                                                                          V22  EL=12     120

                                             592.00          11.73

                                                                          V22  EL=12     120

                                             675.85          11.50

                                                                          V22  EL=11     120

                                             748.00          11.27

                                                                          V22  EL=11     120

                                             751.30          11.26

                                                                          V22  EL=11     120

                                             754.60          11.25

                                                                          V22  EL=11     120

                                             757.90          11.24

                                                                          V22  EL=11     120

                                             761.20          11.23

                                                                          V22  EL=11     120

                                             764.40          11.22

                                                                          V22  EL=11     120

                                             767.70          11.21

                                                                          V22  EL=11     120

                                             771.00          11.20

                                                                          V22  EL=11     120

                                             774.30          11.19

                                                                          V22  EL=11     120

                                             777.60          11.18

                                                                          V22  EL=11     120

                                             780.80          11.17

                                                                          V22  EL=11     120

                                             784.10          11.16

                                                                          V22  EL=11     120

                                             787.40          11.15

                                                                          V22  EL=11     120

                                             790.70          11.14

                                                                          V22  EL=11     120

                                             794.00          11.13

                                                                          V22  EL=11     120

                                             797.20          11.12

                                                                          V22  EL=11     120

                                             800.50          11.11

                                                                          V22  EL=11     120

                                             803.80          11.09

                                                                          V22  EL=11     120

                                             804.38          11.09

                                                                          A20  EL=11     100

                                             807.10          11.08

                                                                          A20  EL=11     100

                                             810.40          11.07

                                                                          A20  EL=11     100

                                             813.60          11.06

                                                                          A20  EL=11     100

                                             816.90          11.05

                                                                          A20  EL=11     100

                                             820.20          11.04

                                                                          A20  EL=11     100

                                             823.50          11.03

                                                                          A20  EL=11     100

                                             826.80          11.02

                                                                          A20  EL=11     100

                                             830.10          11.01

                                                                          A20  EL=11     100

                                             833.30          11.00

                                                                          A20  EL=11     100

                                             836.60          10.99

                                                                          A20  EL=11     100

                                             839.90          10.98

                                                                          A20  EL=11     100

                                             843.20          10.97

                                                                          A20  EL=11     100

                                             846.50          10.96

                                                                          A20  EL=11     100

                                             849.70          10.94

                                                                          A20  EL=11     100

                                             853.00          10.93

                                                                          A20  EL=11     100

                                             856.30          10.92

                                                                          A20  EL=11     100

                                             859.60          10.91

                                                                          A20  EL=11     100

                                             862.90          10.90

                                                                          A20  EL=11     100

                                             866.10          10.89

                                                                          A20  EL=11     100

                                             869.40          10.88

                                                                          A20  EL=11     100

                                             872.70          10.87

                                                                          A20  EL=11     100

                                             876.00          10.86

                                                                          A20  EL=11     100

                                             879.30          10.85

                                                                          A20  EL=11     100

                                             882.50          10.83

                                                                          A20  EL=11     100

                                             885.80          10.82

                                                                          A20  EL=11     100

                                             889.10          10.81

                                                                          A20  EL=11     100

                                             892.40          10.55

                                                                          A20  EL=11     100

                                             892.84          10.50

                                                                          A20  EL=10     100

                                             895.70          10.18

                                                                          A20  EL=10     100

                                             898.90           9.82

                                                                          A20  EL=10     100

                                             902.20           9.51

                                                                          A20  EL=10     100

                                             902.30           9.50

                                                                          A20  EL= 9     100

                                             905.40           9.08



                                                  ZONE TERMINATED AT END OF TRANSECT



                                                  PART 7   POSTSCRIPT NOTES


                         PS#  1   START(418537.5119,4848490.095)                                               
                         PS#  2   END(418596.5287,4848082.7142)                                                
