 WAVE HEIGHT COMPUTATIONS FOR FLOOD INSURANCE STUDIES (WHAFIS VERSION 4.0G, 08_2007)
 Executed on: Thu Feb 20 14:57:36 2020
 Input file:  C:\FEMA-TransectAnalysis\LOMR-TransectAnalysis-Harpswell\3_whafis\whafis4\CM-127.dat                                            
 Output file: C:\FEMA-TransectAnalysis\LOMR-TransectAnalysis-Harpswell\3_whafis\whafis4\CM-127.out                                            



                                                              header                                                                
                                                     THIS IS A 100-YEAR CASE


                                       THE FOLLOWING NON-DEFAULT WIND SPEEDS ARE BEING USED
                                            WINDIF  56.14  WINDOF  56.14  WINDVH  60.00

                                                             PART1 INPUT

          IE      0.000    -30.484      1.000      1.000      8.865      9.395      9.737     56.140      0.000      0.000
          OF      2.000    -30.484      0.000      8.865      0.000      0.000      0.000      0.000      0.000      0.000
          OF      4.000    -30.484      0.000      8.865      0.000      0.000      0.000      0.000      0.000      0.000
          OF      6.000    -30.484      0.000      8.865      0.000      0.000      0.000      0.000      0.000      0.000
          OF      8.000    -30.484      0.000      8.865      0.000      0.000      0.000      0.000      0.000      0.000
          OF     10.000    -30.484      0.000      8.865      0.000      0.000      0.000      0.000      0.000      0.000
          OF     12.000    -30.484      0.000      8.865      0.000      0.000      0.000      0.000      0.000      0.000
          OF     14.000    -30.484      0.000      8.865      0.000      0.000      0.000      0.000      0.000      0.000
          OF     16.000    -30.484      0.000      8.865      0.000      0.000      0.000      0.000      0.000      0.000
          OF     18.000    -30.484      0.000      8.865      0.000      0.000      0.000      0.000      0.000      0.000
          OF     20.000    -30.484      0.000      8.865      0.000      0.000      0.000      0.000      0.000      0.000
          OF     22.000    -30.484      0.000      8.865      0.000      0.000      0.000      0.000      0.000      0.000
          OF     24.000    -30.484      0.000      8.865      0.000      0.000      0.000      0.000      0.002      0.000
          OF     26.000    -30.478      0.000      8.865      0.000      0.000      0.000      0.000      0.008      0.000
          OF     28.000    -30.452      0.000      8.865      0.000      0.000      0.000      0.000      0.013      0.000
          OF     30.000    -30.427      0.000      8.865      0.000      0.000      0.000      0.000      0.013      0.000
          OF     32.000    -30.402      0.000      8.865      0.000      0.000      0.000      0.000      0.013      0.000
          OF     34.000    -30.377      0.000      8.865      0.000      0.000      0.000      0.000      0.013      0.000
          OF     36.000    -30.352      0.000      8.865      0.000      0.000      0.000      0.000      0.013      0.000
          OF     38.000    -30.327      0.000      8.865      0.000      0.000      0.000      0.000      0.013      0.000
          OF     40.000    -30.302      0.000      8.865      0.000      0.000      0.000      0.000      0.013      0.000
          OF     42.000    -30.277      0.000      8.865      0.000      0.000      0.000      0.000      0.013      0.000
          OF     44.000    -30.252      0.000      8.865      0.000      0.000      0.000      0.000      0.013      0.000
          OF     46.000    -30.227      0.000      8.865      0.000      0.000      0.000      0.000      0.013      0.000
          OF     48.000    -30.202      0.000      8.865      0.000      0.000      0.000      0.000      0.013      0.000
          OF     50.000    -30.177      0.000      8.865      0.000      0.000      0.000      0.000      0.014      0.000
          OF     52.000    -30.148      0.000      8.865      0.000      0.000      0.000      0.000      0.014      0.000
          OF     54.000    -30.119      0.000      8.865      0.000      0.000      0.000      0.000      0.015      0.000
          OF     56.000    -30.089      0.000      8.865      0.000      0.000      0.000      0.000      0.015      0.000
          OF     58.000    -30.059      0.000      8.865      0.000      0.000      0.000      0.000      0.015      0.000
          OF     60.000    -30.029      0.000      8.865      0.000      0.000      0.000      0.000      0.015      0.000
          OF     62.000    -30.000      0.000      8.865      0.000      0.000      0.000      0.000      0.015      0.000
          OF     64.000    -29.970      0.000      8.865      0.000      0.000      0.000      0.000      0.015      0.000
          OF     66.000    -29.940      0.000      8.865      0.000      0.000      0.000      0.000      0.015      0.000
          OF     68.000    -29.910      0.000      8.865      0.000      0.000      0.000      0.000      0.015      0.000
          OF     70.000    -29.880      0.000      8.865      0.000      0.000      0.000      0.000      0.015      0.000
          OF     72.000    -29.851      0.000      8.865      0.000      0.000      0.000      0.000      0.015      0.000
          OF     74.000    -29.821      0.000      8.865      0.000      0.000      0.000      0.000      0.015      0.000
          OF     76.000    -29.791      0.000      8.865      0.000      0.000      0.000      0.000      0.015      0.000
          OF     78.000    -29.761      0.000      8.865      0.000      0.000      0.000      0.000      0.015      0.000
          OF     80.000    -29.732      0.000      8.865      0.000      0.000      0.000      0.000      0.015      0.000
          OF     82.000    -29.702      0.000      8.865      0.000      0.000      0.000      0.000      0.015      0.000
          OF     84.000    -29.672      0.000      8.865      0.000      0.000      0.000      0.000      0.015      0.000
          OF     86.000    -29.642      0.000      8.865      0.000      0.000      0.000      0.000      0.015      0.000
          OF     88.000    -29.613      0.000      8.865      0.000      0.000      0.000      0.000      0.015      0.000
          OF     90.000    -29.583      0.000      8.865      0.000      0.000      0.000      0.000      0.015      0.000
          OF     92.000    -29.553      0.000      8.865      0.000      0.000      0.000      0.000      0.015      0.000
          OF     94.000    -29.523      0.000      8.865      0.000      0.000      0.000      0.000      0.015      0.000
          OF     96.000    -29.493      0.000      8.865      0.000      0.000      0.000      0.000      0.015      0.000
          OF     98.000    -29.464      0.000      8.865      0.000      0.000      0.000      0.000      0.015      0.000
          OF    100.000    -29.434      0.000      8.865      0.000      0.000      0.000      0.000      0.015      0.000
          OF    102.000    -29.404      0.000      8.865      0.000      0.000      0.000      0.000      0.015      0.000
          OF    104.000    -29.374      0.000      8.865      0.000      0.000      0.000      0.000      0.015      0.000
          OF    106.000    -29.345      0.000      8.865      0.000      0.000      0.000      0.000      0.015      0.000
          OF    108.000    -29.315      0.000      8.865      0.000      0.000      0.000      0.000      0.015      0.000
          OF    110.000    -29.285      0.000      8.865      0.000      0.000      0.000      0.000      0.015      0.000
          OF    112.000    -29.255      0.000      8.865      0.000      0.000      0.000      0.000      0.015      0.000
          OF    114.000    -29.226      0.000      8.865      0.000      0.000      0.000      0.000      0.015      0.000
          OF    116.000    -29.196      0.000      8.865      0.000      0.000      0.000      0.000      0.015      0.000
          OF    118.000    -29.166      0.000      8.865      0.000      0.000      0.000      0.000      0.015      0.000
          OF    120.000    -29.136      0.000      8.865      0.000      0.000      0.000      0.000      0.015      0.000
          OF    122.000    -29.106      0.000      8.865      0.000      0.000      0.000      0.000      0.015      0.000
          OF    124.000    -29.077      0.000      8.865      0.000      0.000      0.000      0.000      0.015      0.000
          OF    126.000    -29.047      0.000      8.865      0.000      0.000      0.000      0.000      0.015      0.000
          OF    128.000    -29.017      0.000      8.865      0.000      0.000      0.000      0.000      0.015      0.000
          OF    130.000    -28.987      0.000      8.865      0.000      0.000      0.000      0.000      0.015      0.000
          OF    132.000    -28.958      0.000      8.865      0.000      0.000      0.000      0.000      0.015      0.000
          OF    134.000    -28.928      0.000      8.865      0.000      0.000      0.000      0.000      0.015      0.000
          OF    136.000    -28.898      0.000      8.865      0.000      0.000      0.000      0.000      0.015      0.000
          OF    138.000    -28.868      0.000      8.865      0.000      0.000      0.000      0.000      0.010      0.000
          OF    140.000    -28.858      0.000      8.865      0.000      0.000      0.000      0.000      0.002      0.000
          OF    142.000    -28.859      0.000      8.865      0.000      0.000      0.000      0.000      0.000      0.000
          OF    144.000    -28.859      0.000      8.865      0.000      0.000      0.000      0.000      0.000      0.000
          OF    146.000    -28.860      0.000      8.865      0.000      0.000      0.000      0.000      0.000      0.000
          OF    148.000    -28.860      0.000      8.865      0.000      0.000      0.000      0.000      0.000      0.000
          OF    150.000    -28.861      0.000      8.865      0.000      0.000      0.000      0.000      0.000      0.000
          OF    152.000    -28.861      0.000      8.865      0.000      0.000      0.000      0.000      0.000      0.000
          OF    154.000    -28.862      0.000      8.865      0.000      0.000      0.000      0.000      0.000      0.000
          OF    156.000    -28.862      0.000      8.865      0.000      0.000      0.000      0.000      0.000      0.000
          OF    158.000    -28.863      0.000      8.865      0.000      0.000      0.000      0.000      0.000      0.000
          OF    160.000    -28.863      0.000      8.865      0.000      0.000      0.000      0.000      0.000      0.000
          OF    162.000    -28.864      0.000      8.865      0.000      0.000      0.000      0.000      0.000      0.000
          OF    164.000    -28.864      0.000      8.865      0.000      0.000      0.000      0.000      0.000      0.000
          OF    166.000    -28.865      0.000      8.865      0.000      0.000      0.000      0.000      0.000      0.000
          OF    168.000    -28.864      0.000      8.865      0.000      0.000      0.000      0.000      0.001      0.000
          OF    170.000    -28.863      0.000      8.865      0.000      0.000      0.000      0.000      0.001      0.000
          OF    172.000    -28.862      0.000      8.865      0.000      0.000      0.000      0.000      0.001      0.000
          OF    174.000    -28.861      0.000      8.865      0.000      0.000      0.000      0.000      0.001      0.000
          OF    176.000    -28.860      0.000      8.865      0.000      0.000      0.000      0.000      0.001      0.000
          OF    178.000    -28.859      0.000      8.865      0.000      0.000      0.000      0.000      0.001      0.000
          OF    180.000    -28.858      0.000      8.865      0.000      0.000      0.000      0.000      0.001      0.000
          OF    182.000    -28.857      0.000      8.865      0.000      0.000      0.000      0.000      0.001      0.000
          OF    184.000    -28.856      0.000      8.865      0.000      0.000      0.000      0.000      0.001      0.000
          OF    186.000    -28.855      0.000      8.865      0.000      0.000      0.000      0.000      0.001      0.000
          OF    188.000    -28.854      0.000      8.865      0.000      0.000      0.000      0.000      0.001      0.000
          OF    190.000    -28.853      0.000      8.865      0.000      0.000      0.000      0.000      0.001      0.000
          OF    192.000    -28.852      0.000      8.865      0.000      0.000      0.000      0.000      0.001      0.000
          OF    194.000    -28.851      0.000      8.865      0.000      0.000      0.000      0.000      0.001      0.000
          OF    196.000    -28.850      0.000      8.865      0.000      0.000      0.000      0.000      0.001      0.000
          OF    198.000    -28.849      0.000      8.865      0.000      0.000      0.000      0.000      0.001      0.000
          OF    200.000    -28.848      0.000      8.865      0.000      0.000      0.000      0.000      0.001      0.000
          OF    202.000    -28.847      0.000      8.865      0.000      0.000      0.000      0.000      0.001      0.000
          OF    204.000    -28.846      0.000      8.865      0.000      0.000      0.000      0.000      0.001      0.000
          OF    206.000    -28.845      0.000      8.865      0.000      0.000      0.000      0.000      0.001      0.000
          OF    208.000    -28.844      0.000      8.865      0.000      0.000      0.000      0.000      0.001      0.000
          OF    210.000    -28.843      0.000      8.865      0.000      0.000      0.000      0.000      0.001      0.000
          OF    212.000    -28.842      0.000      8.865      0.000      0.000      0.000      0.000      0.001      0.000
          OF    214.000    -28.841      0.000      8.865      0.000      0.000      0.000      0.000      0.001      0.000
          OF    216.000    -28.840      0.000      8.865      0.000      0.000      0.000      0.000      0.001      0.000
          OF    218.000    -28.839      0.000      8.865      0.000      0.000      0.000      0.000      0.001      0.000
          OF    220.000    -28.838      0.000      8.865      0.000      0.000      0.000      0.000      0.001      0.000
          OF    222.000    -28.837      0.000      8.865      0.000      0.000      0.000      0.000      0.001      0.000
          OF    224.000    -28.836      0.000      8.865      0.000      0.000      0.000      0.000      0.001      0.000
          OF    226.000    -28.835      0.000      8.865      0.000      0.000      0.000      0.000      0.001      0.000
          OF    228.000    -28.834      0.000      8.865      0.000      0.000      0.000      0.000      0.001      0.000
          OF    230.000    -28.833      0.000      8.865      0.000      0.000      0.000      0.000      0.001      0.000
          OF    232.000    -28.832      0.000      8.865      0.000      0.000      0.000      0.000      0.001      0.000
          OF    234.000    -28.831      0.000      8.865      0.000      0.000      0.000      0.000      0.001      0.000
          OF    236.000    -28.830      0.000      8.865      0.000      0.000      0.000      0.000      0.001      0.000
          OF    238.000    -28.829      0.000      8.865      0.000      0.000      0.000      0.000      0.001      0.000
          OF    240.000    -28.828      0.000      8.865      0.000      0.000      0.000      0.000      0.001      0.000
          OF    242.000    -28.827      0.000      8.865      0.000      0.000      0.000      0.000      0.001      0.000
          OF    244.000    -28.826      0.000      8.865      0.000      0.000      0.000      0.000      0.001      0.000
          OF    246.000    -28.825      0.000      8.865      0.000      0.000      0.000      0.000      0.001      0.000
          OF    248.000    -28.824      0.000      8.865      0.000      0.000      0.000      0.000      0.001      0.000
          OF    250.000    -28.823      0.000      8.865      0.000      0.000      0.000      0.000      0.001      0.000
          OF    252.000    -28.822      0.000      8.865      0.000      0.000      0.000      0.000      0.000      0.000
          OF    254.000    -28.823      0.000      8.865      0.000      0.000      0.000      0.000     -0.001      0.000
          OF    256.000    -28.825      0.000      8.865      0.000      0.000      0.000      0.000     -0.001      0.000
          OF    258.000    -28.827      0.000      8.865      0.000      0.000      0.000      0.000     -0.001      0.000
          OF    260.000    -28.829      0.000      8.865      0.000      0.000      0.000      0.000     -0.001      0.000
          OF    262.000    -28.832      0.000      8.865      0.000      0.000      0.000      0.000     -0.001      0.000
          OF    264.000    -28.834      0.000      8.865      0.000      0.000      0.000      0.000     -0.001      0.000
          OF    266.000    -28.836      0.000      8.865      0.000      0.000      0.000      0.000     -0.001      0.000
          OF    268.000    -28.838      0.000      8.865      0.000      0.000      0.000      0.000     -0.001      0.000
          OF    270.000    -28.841      0.000      8.865      0.000      0.000      0.000      0.000     -0.001      0.000
          OF    272.000    -28.843      0.000      8.865      0.000      0.000      0.000      0.000     -0.001      0.000
          OF    274.000    -28.845      0.000      8.865      0.000      0.000      0.000      0.000     -0.001      0.000
          OF    276.000    -28.847      0.000      8.865      0.000      0.000      0.000      0.000     -0.001      0.000
          OF    278.000    -28.850      0.000      8.865      0.000      0.000      0.000      0.000      0.003      0.000
          OF    280.000    -28.836      0.000      8.865      0.000      0.000      0.000      0.000      0.028      0.000
          OF    282.000    -28.738      0.000      8.865      0.000      0.000      0.000      0.000      0.049      0.000
          OF    284.000    -28.640      0.000      8.865      0.000      0.000      0.000      0.000      0.049      0.000
          OF    286.000    -28.542      0.000      8.865      0.000      0.000      0.000      0.000      0.049      0.000
          OF    288.000    -28.444      0.000      8.865      0.000      0.000      0.000      0.000      0.049      0.000
          OF    290.000    -28.346      0.000      8.865      0.000      0.000      0.000      0.000      0.049      0.000
          OF    292.000    -28.248      0.000      8.865      0.000      0.000      0.000      0.000      0.049      0.000
          OF    294.000    -28.150      0.000      8.865      0.000      0.000      0.000      0.000      0.049      0.000
          OF    296.000    -28.052      0.000      8.865      0.000      0.000      0.000      0.000      0.049      0.000
          OF    298.000    -27.954      0.000      8.865      0.000      0.000      0.000      0.000      0.049      0.000
          OF    300.000    -27.857      0.000      8.865      0.000      0.000      0.000      0.000      0.049      0.000
          OF    302.000    -27.759      0.000      8.865      0.000      0.000      0.000      0.000      0.049      0.000
          OF    304.000    -27.661      0.000      8.865      0.000      0.000      0.000      0.000      0.049      0.000
          OF    306.000    -27.563      0.000      8.865      0.000      0.000      0.000      0.000      0.049      0.000
          OF    308.000    -27.465      0.000      8.865      0.000      0.000      0.000      0.000      0.049      0.000
          OF    310.000    -27.367      0.000      8.865      0.000      0.000      0.000      0.000      0.049      0.000
          OF    312.000    -27.269      0.000      8.865      0.000      0.000      0.000      0.000      0.049      0.000
          OF    314.000    -27.171      0.000      8.865      0.000      0.000      0.000      0.000      0.049      0.000
          OF    316.000    -27.073      0.000      8.865      0.000      0.000      0.000      0.000      0.049      0.000
          OF    318.000    -26.975      0.000      8.865      0.000      0.000      0.000      0.000      0.049      0.000
          OF    320.000    -26.877      0.000      8.865      0.000      0.000      0.000      0.000      0.049      0.000
          OF    322.000    -26.779      0.000      8.865      0.000      0.000      0.000      0.000      0.049      0.000
          OF    324.000    -26.681      0.000      8.865      0.000      0.000      0.000      0.000      0.049      0.000
          OF    326.000    -26.583      0.000      8.865      0.000      0.000      0.000      0.000      0.049      0.000
          OF    328.000    -26.485      0.000      8.865      0.000      0.000      0.000      0.000      0.049      0.000
          OF    330.000    -26.387      0.000      8.865      0.000      0.000      0.000      0.000      0.049      0.000
          OF    332.000    -26.289      0.000      8.865      0.000      0.000      0.000      0.000      0.049      0.000
          OF    334.000    -26.191      0.000      8.865      0.000      0.000      0.000      0.000      0.034      0.000
          OF    336.000    -26.155      0.000      8.865      0.000      0.000      0.000      0.000      0.014      0.000
          OF    338.000    -26.133      0.000      8.865      0.000      0.000      0.000      0.000      0.011      0.000
          OF    340.000    -26.110      0.000      8.865      0.000      0.000      0.000      0.000      0.011      0.000
          OF    342.000    -26.088      0.000      8.865      0.000      0.000      0.000      0.000      0.011      0.000
          OF    344.000    -26.065      0.000      8.865      0.000      0.000      0.000      0.000      0.011      0.000
          OF    346.000    -26.043      0.000      8.865      0.000      0.000      0.000      0.000      0.011      0.000
          OF    348.000    -26.020      0.000      8.865      0.000      0.000      0.000      0.000      0.011      0.000
          OF    350.000    -25.998      0.000      8.865      0.000      0.000      0.000      0.000      0.011      0.000
          OF    352.000    -25.976      0.000      8.865      0.000      0.000      0.000      0.000      0.011      0.000
          OF    354.000    -25.953      0.000      8.865      0.000      0.000      0.000      0.000      0.011      0.000
          OF    356.000    -25.931      0.000      8.865      0.000      0.000      0.000      0.000      0.011      0.000
          OF    358.000    -25.908      0.000      8.865      0.000      0.000      0.000      0.000      0.011      0.000
          OF    360.000    -25.886      0.000      8.865      0.000      0.000      0.000      0.000      0.011      0.000
          OF    362.000    -25.863      0.000      8.865      0.000      0.000      0.000      0.000      0.024      0.000
          OF    364.000    -25.790      0.000      8.865      0.000      0.000      0.000      0.000      0.045      0.000
          OF    366.000    -25.684      0.000      8.865      0.000      0.000      0.000      0.000      0.053      0.000
          OF    368.000    -25.578      0.000      8.865      0.000      0.000      0.000      0.000      0.053      0.000
          OF    370.000    -25.472      0.000      8.865      0.000      0.000      0.000      0.000      0.053      0.000
          OF    372.000    -25.366      0.000      8.865      0.000      0.000      0.000      0.000      0.053      0.000
          OF    374.000    -25.260      0.000      8.865      0.000      0.000      0.000      0.000      0.053      0.000
          OF    376.000    -25.154      0.000      8.865      0.000      0.000      0.000      0.000      0.053      0.000
          OF    378.000    -25.048      0.000      8.865      0.000      0.000      0.000      0.000      0.053      0.000
          OF    380.000    -24.942      0.000      8.865      0.000      0.000      0.000      0.000      0.053      0.000
          OF    382.000    -24.836      0.000      8.865      0.000      0.000      0.000      0.000      0.053      0.000
          OF    384.000    -24.730      0.000      8.865      0.000      0.000      0.000      0.000      0.053      0.000
          OF    386.000    -24.624      0.000      8.865      0.000      0.000      0.000      0.000      0.062      0.000
          OF    388.000    -24.483      0.000      8.865      0.000      0.000      0.000      0.000      0.079      0.000
          OF    390.000    -24.308      0.000      8.865      0.000      0.000      0.000      0.000      0.087      0.000
          OF    392.000    -24.134      0.000      8.865      0.000      0.000      0.000      0.000      0.087      0.000
          OF    394.000    -23.960      0.000      8.865      0.000      0.000      0.000      0.000      0.087      0.000
          OF    396.000    -23.785      0.000      8.865      0.000      0.000      0.000      0.000      0.087      0.000
          OF    398.000    -23.611      0.000      8.865      0.000      0.000      0.000      0.000      0.087      0.000
          OF    400.000    -23.437      0.000      8.865      0.000      0.000      0.000      0.000      0.087      0.000
          OF    402.000    -23.262      0.000      8.865      0.000      0.000      0.000      0.000      0.087      0.000
          OF    404.000    -23.088      0.000      8.865      0.000      0.000      0.000      0.000      0.087      0.000
          OF    406.000    -22.914      0.000      8.865      0.000      0.000      0.000      0.000      0.087      0.000
          OF    408.000    -22.739      0.000      8.865      0.000      0.000      0.000      0.000      0.087      0.000
          OF    410.000    -22.565      0.000      8.865      0.000      0.000      0.000      0.000      0.087      0.000
          OF    412.000    -22.391      0.000      8.865      0.000      0.000      0.000      0.000      0.087      0.000
          OF    414.000    -22.216      0.000      8.865      0.000      0.000      0.000      0.000      0.087      0.000
          OF    416.000    -22.042      0.000      8.865      0.000      0.000      0.000      0.000      0.087      0.000
          OF    418.000    -21.868      0.000      8.865      0.000      0.000      0.000      0.000      0.087      0.000
          OF    420.000    -21.693      0.000      8.865      0.000      0.000      0.000      0.000      0.087      0.000
          OF    422.000    -21.519      0.000      8.865      0.000      0.000      0.000      0.000      0.087      0.000
          OF    424.000    -21.345      0.000      8.865      0.000      0.000      0.000      0.000      0.087      0.000
          OF    426.000    -21.170      0.000      8.865      0.000      0.000      0.000      0.000      0.087      0.000
          OF    428.000    -20.996      0.000      8.865      0.000      0.000      0.000      0.000      0.087      0.000
          OF    430.000    -20.820      0.000      8.865      0.000      0.000      0.000      0.000      0.089      0.000
          OF    432.000    -20.642      0.000      8.865      0.000      0.000      0.000      0.000      0.089      0.000
          OF    434.000    -20.464      0.000      8.865      0.000      0.000      0.000      0.000      0.089      0.000
          OF    436.000    -20.287      0.000      8.865      0.000      0.000      0.000      0.000      0.089      0.000
          OF    438.000    -20.109      0.000      8.865      0.000      0.000      0.000      0.000      0.089      0.000
          OF    440.000    -19.931      0.000      8.865      0.000      0.000      0.000      0.000      0.089      0.000
          OF    442.000    -19.754      0.000      8.865      0.000      0.000      0.000      0.000      0.089      0.000
          OF    444.000    -19.576      0.000      8.865      0.000      0.000      0.000      0.000      0.089      0.000
          OF    446.000    -19.399      0.000      8.865      0.000      0.000      0.000      0.000      0.089      0.000
          OF    448.000    -19.221      0.000      8.865      0.000      0.000      0.000      0.000      0.089      0.000
          OF    450.000    -19.043      0.000      8.865      0.000      0.000      0.000      0.000      0.089      0.000
          OF    452.000    -18.866      0.000      8.865      0.000      0.000      0.000      0.000      0.089      0.000
          OF    454.000    -18.688      0.000      8.865      0.000      0.000      0.000      0.000      0.089      0.000
          OF    456.000    -18.511      0.000      8.864      0.000      0.000      0.000      0.000      0.089      0.000
          OF    458.000    -18.333      0.000      8.864      0.000      0.000      0.000      0.000      0.089      0.000
          OF    460.000    -18.155      0.000      8.864      0.000      0.000      0.000      0.000      0.089      0.000
          OF    462.000    -17.978      0.000      8.864      0.000      0.000      0.000      0.000      0.070      0.000
          OF    464.000    -17.874      0.000      8.864      0.000      0.000      0.000      0.000      0.050      0.000
          OF    466.000    -17.777      0.000      8.864      0.000      0.000      0.000      0.000      0.049      0.000
          OF    468.000    -17.679      0.000      8.864      0.000      0.000      0.000      0.000      0.049      0.000
          OF    470.000    -17.582      0.000      8.864      0.000      0.000      0.000      0.000      0.049      0.000
          OF    472.000    -17.484      0.000      8.864      0.000      0.000      0.000      0.000      0.049      0.000
          OF    474.000    -17.387      0.000      8.864      0.000      0.000      0.000      0.000      0.049      0.000
          OF    476.000    -17.290      0.000      8.864      0.000      0.000      0.000      0.000      0.049      0.000
          OF    478.000    -17.192      0.000      8.864      0.000      0.000      0.000      0.000      0.049      0.000
          OF    480.000    -17.095      0.000      8.864      0.000      0.000      0.000      0.000      0.049      0.000
          OF    482.000    -16.997      0.000      8.864      0.000      0.000      0.000      0.000      0.049      0.000
          OF    484.000    -16.900      0.000      8.864      0.000      0.000      0.000      0.000      0.049      0.000
          OF    486.000    -16.803      0.000      8.864      0.000      0.000      0.000      0.000      0.049      0.000
          OF    488.000    -16.705      0.000      8.864      0.000      0.000      0.000      0.000      0.049      0.000
          OF    490.000    -16.608      0.000      8.864      0.000      0.000      0.000      0.000      0.049      0.000
          OF    492.000    -16.510      0.000      8.863      0.000      0.000      0.000      0.000      0.049      0.000
          OF    494.000    -16.413      0.000      8.863      0.000      0.000      0.000      0.000      0.049      0.000
          OF    496.000    -16.316      0.000      8.863      0.000      0.000      0.000      0.000      0.049      0.000
          OF    498.000    -16.218      0.000      8.863      0.000      0.000      0.000      0.000      0.049      0.000
          OF    500.000    -16.121      0.000      8.863      0.000      0.000      0.000      0.000      0.049      0.000
          OF    502.000    -16.023      0.000      8.863      0.000      0.000      0.000      0.000      0.049      0.000
          OF    504.000    -15.926      0.000      8.863      0.000      0.000      0.000      0.000      0.049      0.000
          OF    506.000    -15.829      0.000      8.863      0.000      0.000      0.000      0.000      0.049      0.000
          OF    508.000    -15.731      0.000      8.863      0.000      0.000      0.000      0.000      0.049      0.000
          OF    510.000    -15.634      0.000      8.863      0.000      0.000      0.000      0.000      0.049      0.000
          OF    512.000    -15.537      0.000      8.863      0.000      0.000      0.000      0.000      0.049      0.000
          OF    514.000    -15.439      0.000      8.863      0.000      0.000      0.000      0.000      0.049      0.000
          OF    516.000    -15.342      0.000      8.863      0.000      0.000      0.000      0.000      0.049      0.000
          OF    518.000    -15.244      0.000      8.862      0.000      0.000      0.000      0.000      0.049      0.000
          OF    520.000    -15.147      0.000      8.862      0.000      0.000      0.000      0.000      0.049      0.000
          OF    522.000    -15.050      0.000      8.862      0.000      0.000      0.000      0.000      0.049      0.000
          OF    524.000    -14.952      0.000      8.862      0.000      0.000      0.000      0.000      0.049      0.000
          OF    526.000    -14.855      0.000      8.862      0.000      0.000      0.000      0.000      0.049      0.000
          OF    528.000    -14.757      0.000      8.862      0.000      0.000      0.000      0.000      0.049      0.000
          OF    530.000    -14.660      0.000      8.862      0.000      0.000      0.000      0.000      0.049      0.000
          OF    532.000    -14.563      0.000      8.862      0.000      0.000      0.000      0.000      0.049      0.000
          OF    534.000    -14.465      0.000      8.862      0.000      0.000      0.000      0.000      0.049      0.000
          OF    536.000    -14.368      0.000      8.862      0.000      0.000      0.000      0.000      0.055      0.000
          OF    538.000    -14.244      0.000      8.862      0.000      0.000      0.000      0.000      0.078      0.000
          OF    540.000    -14.058      0.000      8.861      0.000      0.000      0.000      0.000      0.093      0.000
          OF    542.000    -13.872      0.000      8.861      0.000      0.000      0.000      0.000      0.093      0.000
          OF    544.000    -13.686      0.000      8.861      0.000      0.000      0.000      0.000      0.093      0.000
          OF    546.000    -13.500      0.000      8.861      0.000      0.000      0.000      0.000      0.093      0.000
          OF    548.000    -13.314      0.000      8.861      0.000      0.000      0.000      0.000      0.093      0.000
          OF    550.000    -13.128      0.000      8.861      0.000      0.000      0.000      0.000      0.093      0.000
          OF    552.000    -12.943      0.000      8.861      0.000      0.000      0.000      0.000      2.181      0.000
          OF    554.000     -4.402      0.000      8.861      0.000      0.000      0.000      0.000      2.120      0.000
          OF    556.000     -4.464      0.000      8.861      0.000      0.000      0.000      0.000     -0.031      0.000
          OF    558.000     -4.526      0.000      8.861      0.000      0.000      0.000      0.000     -0.031      0.000
          OF    560.000     -4.588      0.000      8.861      0.000      0.000      0.000      0.000     -0.031      0.000
          OF    562.000     -4.650      0.000      8.861      0.000      0.000      0.000      0.000     -0.031      0.000
          OF    564.000     -4.712      0.000      8.861      0.000      0.000      0.000      0.000     -0.026      0.000
          OF    566.000     -4.754      0.000      8.860      0.000      0.000      0.000      0.000     -0.001      0.000
          OF    568.000     -4.717      0.000      8.860      0.000      0.000      0.000      0.000      0.024      0.000
          OF    570.000     -4.658      0.000      8.860      0.000      0.000      0.000      0.000      0.032      0.000
          OF    572.000     -4.590      0.000      8.860      0.000      0.000      0.000      0.000      0.034      0.000
          OF    574.000     -4.522      0.000      8.860      0.000      0.000      0.000      0.000      0.034      0.000
          OF    576.000     -4.454      0.000      8.860      0.000      0.000      0.000      0.000      0.034      0.000
          OF    578.000     -4.386      0.000      8.860      0.000      0.000      0.000      0.000      0.024      0.000
          OF    580.000     -4.359      0.000      8.860      0.000      0.000      0.000      0.000     -0.008      0.000
          OF    582.000     -4.418      0.000      8.859      0.000      0.000      0.000      0.000     -0.030      0.000
          OF    584.000     -4.477      0.000      8.859      0.000      0.000      0.000      0.000     -0.030      0.000
          OF    586.000     -4.536      0.000      8.859      0.000      0.000      0.000      0.000     -0.030      0.000
          OF    588.000     -4.595      0.000      8.859      0.000      0.000      0.000      0.000     -0.030      0.000
          OF    590.000     -4.654      0.000      8.859      0.000      0.000      0.000      0.000     -0.024      0.000
          OF    592.000     -4.693      0.000      8.859      0.000      0.000      0.000      0.000      0.003      0.000
          OF    594.000     -4.641      0.000      8.859      0.000      0.000      0.000      0.000      0.026      0.000
          OF    596.000     -4.590      0.000      8.859      0.000      0.000      0.000      0.000      0.028      0.000
          OF    598.000     -4.531      0.000      8.859      0.000      0.000      0.000      0.000      0.032      0.000
          OF    600.000     -4.464      0.000      8.859      0.000      0.000      0.000      0.000      0.022      0.000
          OF    602.000     -4.441      0.000      8.858      0.000      0.000      0.000      0.000     -0.004      0.000
          OF    604.000     -4.480      0.000      8.858      0.000      0.000      0.000      0.000     -0.015      0.000
          OF    606.000     -4.500      0.000      8.858      0.000      0.000      0.000      0.000     -0.010      0.000
          OF    608.000     -4.520      0.000      8.858      0.000      0.000      0.000      0.000     -0.010      0.000
          OF    610.000     -4.540      0.000      8.858      0.000      0.000      0.000      0.000     -0.007      0.000
          OF    612.000     -4.547      0.000      8.858      0.000      0.000      0.000      0.000      0.025      0.000
          OF    614.000     -4.441      0.000      8.858      0.000      0.000      0.000      0.000      0.053      0.000
          OF    616.000     -4.334      0.000      8.858      0.000      0.000      0.000      0.000      0.026      0.000
          OF    618.000     -4.338      0.000      8.858      0.000      0.000      0.000      0.000     -0.013      0.000
          OF    620.000     -4.384      0.000      8.858      0.000      0.000      0.000      0.000     -0.022      0.000
          OF    622.000     -4.425      0.000      8.857      0.000      0.000      0.000      0.000     -0.020      0.000
          OF    624.000     -4.466      0.000      8.857      0.000      0.000      0.000      0.000     -0.020      0.000
          OF    626.000     -4.507      0.000      8.857      0.000      0.000      0.000      0.000     -0.020      0.000
          OF    628.000     -4.548      0.000      8.857      0.000      0.000      0.000      0.000     -0.020      0.000
          OF    630.000     -4.589      0.000      8.857      0.000      0.000      0.000      0.000     -0.014      0.000
          OF    632.000     -4.605      0.000      8.857      0.000      0.000      0.000      0.000     -0.008      0.000
          OF    634.000     -4.622      0.000      8.857      0.000      0.000      0.000      0.000     -0.008      0.000
          OF    636.000     -4.638      0.000      8.857      0.000      0.000      0.000      0.000     -0.008      0.000
          OF    638.000     -4.655      0.000      8.858      0.000      0.000      0.000      0.000     -0.008      0.000
          OF    640.000     -4.671      0.000      8.858      0.000      0.000      0.000      0.000     -0.008      0.000
          OF    642.000     -4.688      0.000      8.859      0.000      0.000      0.000      0.000     -0.008      0.000
          OF    644.000     -4.703      0.000      8.860      0.000      0.000      0.000      0.000      0.012      0.000
          OF    646.000     -4.642      0.000      8.860      0.000      0.000      0.000      0.000      0.029      0.000
          OF    648.000     -4.588      0.000      8.861      0.000      0.000      0.000      0.000      0.027      0.000
          OF    650.000     -4.533      0.000      8.862      0.000      0.000      0.000      0.000      0.049      0.000
          OF    652.000     -4.390      0.000      8.862      0.000      0.000      0.000      0.000      0.072      0.000
          OF    654.000     -4.246      0.000      8.863      0.000      0.000      0.000      0.000      0.074      0.000
          OF    656.000     -4.092      0.000      8.863      0.000      0.000      0.000      0.000      0.063      0.000
          OF    658.000     -3.993      0.000      8.864      0.000      0.000      0.000      0.000      0.051      0.000
          OF    660.000     -3.888      0.000      8.865      0.000      0.000      0.000      0.000      0.056      0.000
          OF    662.000     -3.769      0.000      8.865      0.000      0.000      0.000      0.000      0.076      0.000
          OF    664.000     -3.585      0.000      8.866      0.000      0.000      0.000      0.000      0.113      0.000
          OF    666.000     -3.318      0.000      8.866      0.000      0.000      0.000      0.000      0.136      0.000
          OF    668.000     -3.039      0.000      8.867      0.000      0.000      0.000      0.000      0.128      0.000
          OF    670.000     -2.804      0.000      8.868      0.000      0.000      0.000      0.000      0.091      0.000
          OF    672.000     -2.677      0.000      8.868      0.000      0.000      0.000      0.000      0.034      0.000
          OF    674.000     -2.667      0.000      8.869      0.000      0.000      0.000      0.000      0.032      0.000
          OF    676.000     -2.549      0.000      8.870      0.000      0.000      0.000      0.000      0.043      0.000
          OF    678.000     -2.497      0.000      8.870      0.000      0.000      0.000      0.000      0.073      0.000
          OF    680.000     -2.257      0.000      8.871      0.000      0.000      0.000      0.000      0.124      0.000
          OF    682.000     -2.003      0.000      8.872      0.000      0.000      0.000      0.000      0.079      0.000
          OF    684.000     -1.939      0.000      8.872      0.000      0.000      0.000      0.000      0.026      0.000
          OF    686.000     -1.896      0.000      8.873      0.000      0.000      0.000      0.000      0.057      0.000
          OF    688.000     -1.713      0.000      8.873      0.000      0.000      0.000      0.000      0.101      0.000
          OF    690.000     -1.492      0.000      8.874      0.000      0.000      0.000      0.000      0.107      0.000
          OF    692.000     -1.286      0.000      8.875      0.000      0.000      0.000      0.000      0.090      0.000
          OF    694.000     -1.133      0.000      8.875      0.000      0.000      0.000      0.000      0.077      0.000
          OF    696.000     -0.978      0.000      8.876      0.000      0.000      0.000      0.000      0.082      0.000
          OF    698.000     -0.804      0.000      8.876      0.000      0.000      0.000      0.000      0.085      0.000
          OF    700.000     -0.636      0.000      8.877      0.000      0.000      0.000      0.000      0.104      0.000
          OF    702.000     -0.386      0.000      8.878      0.000      0.000      0.000      0.000      0.089      0.000
          OF    704.000     -0.280      0.000      8.878      0.000      0.000      0.000      0.000      0.098      0.000
          IF    706.000      0.007      0.000      8.879      0.000      0.000      0.000      0.000      0.124      0.000
          IF    708.000      0.216      0.000      8.880      0.000      0.000      0.000      0.000      0.107      0.000
          IF    710.000      0.436      0.000      8.880      0.000      0.000      0.000      0.000      0.110      0.000
          IF    712.000      0.655      0.000      8.881      0.000      0.000      0.000      0.000      0.113      0.000
          IF    714.000      0.887      0.000      8.881      0.000      0.000      0.000      0.000      0.100      0.000
          IF    716.000      1.056      0.000      8.882      0.000      0.000      0.000      0.000      0.071      0.000
          IF    718.000      1.169      0.000      8.883      0.000      0.000      0.000      0.000      0.055      0.000
          IF    720.000      1.275      0.000      8.883      0.000      0.000      0.000      0.000      0.047      0.000
          IF    721.800      1.346      0.000      8.875      0.000      0.000      0.000      0.000      0.025      0.000
          IF    725.100      1.403      0.000      8.889      0.000      0.000      0.000      0.000      0.038      0.000
          IF    728.300      1.595      0.000      8.900      0.000      0.000      0.000      0.000      0.063      0.000
          IF    731.600      1.809      0.000      8.910      0.000      0.000      0.000      0.000      0.065      0.000
          IF    734.900      2.028      0.000      8.920      0.000      0.000      0.000      0.000      0.098      0.000
          IF    738.200      2.458      0.000      8.927      0.000      0.000      0.000      0.000      0.107      0.000
          IF    741.500      2.736      0.000      8.941      0.000      0.000      0.000      0.000      0.076      0.000
          IF    744.700      2.952      0.000      8.957      0.000      0.000      0.000      0.000      0.093      0.000
          IF    748.000      3.342      0.000      8.970      0.000      0.000      0.000      0.000      0.111      0.000
          IF    751.300      3.684      0.000      8.988      0.000      0.000      0.000      0.000      0.075      0.000
          IF    754.600      3.838      0.000      9.012      0.000      0.000      0.000      0.000      0.042      0.000
          IF    757.900      3.961      0.000      9.037      0.000      0.000      0.000      0.000      0.071      0.000
          IF    761.200      4.307      0.000      9.056      0.000      0.000      0.000      0.000      0.133      0.000
          IF    764.400      4.828      0.000      9.076      0.000      0.000      0.000      0.000      0.180      0.000
          IF    767.700      5.477      0.000      9.099      0.000      0.000      0.000      0.000      0.221      0.000
          IF    771.000      6.288      0.000      9.120      0.000      0.000      0.000      0.000      0.166      0.000
          IF    774.300      6.575      0.000      9.184      0.000      0.000      0.000      0.000      0.056      0.000
          IF    777.600      6.655      0.000      9.256      0.000      0.000      0.000      0.000      0.119      0.000
          IF    780.800      7.352      0.000      9.346      0.000      0.000      0.000      0.000      0.220      0.000
          IF    784.100      8.081      0.000      9.500      0.000      0.000      0.000      0.000      0.208      0.000
          IF    787.400      8.724      0.000      9.678      0.000      0.000      0.000      0.000      0.171      0.000
          IF    790.000      9.093      0.000      9.678      0.000      0.000      0.000      0.000      0.193      0.000
          IF    792.000      9.611      0.000      9.678      0.000      0.000      0.000      0.000      0.266      0.000
          IF    792.200      9.678      0.000      9.678      0.000      0.000      0.000      0.000      0.335      0.000
          ET      0.000      0.000      0.000      0.000      0.000      0.000      0.000      0.000      0.000      0.000
1


            END        END      FETCH SURGE ELEV SURGE ELEV    INITIAL    INITIAL                BOTTOM    AVERAGE
        STATION  ELEVATION     LENGTH    10-YEAR   100-YEAR WAVE HEIGHT  W. PERIOD                SLOPE    A-ZONES
  IE      0.000    -30.484      1.000      1.000      8.865      9.395      9.737     56.140      0.000      0.000


            END        END  NEW SURGE  NEW SURGE                                                 BOTTOM    AVERAGE
        STATION  ELEVATION    10-YEAR   100-YEAR                                                  SLOPE    A-ZONES
  OF      2.000    -30.484      0.000      8.865      0.000      0.000      0.000      0.000      0.000      0.000


            END        END  NEW SURGE  NEW SURGE                                                 BOTTOM    AVERAGE
        STATION  ELEVATION    10-YEAR   100-YEAR                                                  SLOPE    A-ZONES
  OF      4.000    -30.484      0.000      8.865      0.000      0.000      0.000      0.000      0.000      0.000


            END        END  NEW SURGE  NEW SURGE                                                 BOTTOM    AVERAGE
        STATION  ELEVATION    10-YEAR   100-YEAR                                                  SLOPE    A-ZONES
  OF      6.000    -30.484      0.000      8.865      0.000      0.000      0.000      0.000      0.000      0.000


            END        END  NEW SURGE  NEW SURGE                                                 BOTTOM    AVERAGE
        STATION  ELEVATION    10-YEAR   100-YEAR                                                  SLOPE    A-ZONES
  OF      8.000    -30.484      0.000      8.865      0.000      0.000      0.000      0.000      0.000      0.000


            END        END  NEW SURGE  NEW SURGE                                                 BOTTOM    AVERAGE
        STATION  ELEVATION    10-YEAR   100-YEAR                                                  SLOPE    A-ZONES
  OF     10.000    -30.484      0.000      8.865      0.000      0.000      0.000      0.000      0.000      0.000


            END        END  NEW SURGE  NEW SURGE                                                 BOTTOM    AVERAGE
        STATION  ELEVATION    10-YEAR   100-YEAR                                                  SLOPE    A-ZONES
  OF     12.000    -30.484      0.000      8.865      0.000      0.000      0.000      0.000      0.000      0.000


            END        END  NEW SURGE  NEW SURGE                                                 BOTTOM    AVERAGE
        STATION  ELEVATION    10-YEAR   100-YEAR                                                  SLOPE    A-ZONES
  OF     14.000    -30.484      0.000      8.865      0.000      0.000      0.000      0.000      0.000      0.000


            END        END  NEW SURGE  NEW SURGE                                                 BOTTOM    AVERAGE
        STATION  ELEVATION    10-YEAR   100-YEAR                                                  SLOPE    A-ZONES
  OF     16.000    -30.484      0.000      8.865      0.000      0.000      0.000      0.000      0.000      0.000


            END        END  NEW SURGE  NEW SURGE                                                 BOTTOM    AVERAGE
        STATION  ELEVATION    10-YEAR   100-YEAR                                                  SLOPE    A-ZONES
  OF     18.000    -30.484      0.000      8.865      0.000      0.000      0.000      0.000      0.000      0.000


            END        END  NEW SURGE  NEW SURGE                                                 BOTTOM    AVERAGE
        STATION  ELEVATION    10-YEAR   100-YEAR                                                  SLOPE    A-ZONES
  OF     20.000    -30.484      0.000      8.865      0.000      0.000      0.000      0.000      0.000      0.000


            END        END  NEW SURGE  NEW SURGE                                                 BOTTOM    AVERAGE
        STATION  ELEVATION    10-YEAR   100-YEAR                                                  SLOPE    A-ZONES
  OF     22.000    -30.484      0.000      8.865      0.000      0.000      0.000      0.000      0.000      0.000


            END        END  NEW SURGE  NEW SURGE                                                 BOTTOM    AVERAGE
        STATION  ELEVATION    10-YEAR   100-YEAR                                                  SLOPE    A-ZONES
  OF     24.000    -30.484      0.000      8.865      0.000      0.000      0.000      0.000      0.002      0.000


            END        END  NEW SURGE  NEW SURGE                                                 BOTTOM    AVERAGE
        STATION  ELEVATION    10-YEAR   100-YEAR                                                  SLOPE    A-ZONES
  OF     26.000    -30.478      0.000      8.865      0.000      0.000      0.000      0.000      0.008      0.000


            END        END  NEW SURGE  NEW SURGE                                                 BOTTOM    AVERAGE
        STATION  ELEVATION    10-YEAR   100-YEAR                                                  SLOPE    A-ZONES
  OF     28.000    -30.452      0.000      8.865      0.000      0.000      0.000      0.000      0.013      0.000


            END        END  NEW SURGE  NEW SURGE                                                 BOTTOM    AVERAGE
        STATION  ELEVATION    10-YEAR   100-YEAR                                                  SLOPE    A-ZONES
  OF     30.000    -30.427      0.000      8.865      0.000      0.000      0.000      0.000      0.013      0.000


            END        END  NEW SURGE  NEW SURGE                                                 BOTTOM    AVERAGE
        STATION  ELEVATION    10-YEAR   100-YEAR                                                  SLOPE    A-ZONES
  OF     32.000    -30.402      0.000      8.865      0.000      0.000      0.000      0.000      0.013      0.000


            END        END  NEW SURGE  NEW SURGE                                                 BOTTOM    AVERAGE
        STATION  ELEVATION    10-YEAR   100-YEAR                                                  SLOPE    A-ZONES
  OF     34.000    -30.377      0.000      8.865      0.000      0.000      0.000      0.000      0.013      0.000


            END        END  NEW SURGE  NEW SURGE                                                 BOTTOM    AVERAGE
        STATION  ELEVATION    10-YEAR   100-YEAR                                                  SLOPE    A-ZONES
  OF     36.000    -30.352      0.000      8.865      0.000      0.000      0.000      0.000      0.013      0.000


            END        END  NEW SURGE  NEW SURGE                                                 BOTTOM    AVERAGE
        STATION  ELEVATION    10-YEAR   100-YEAR                                                  SLOPE    A-ZONES
  OF     38.000    -30.327      0.000      8.865      0.000      0.000      0.000      0.000      0.013      0.000


            END        END  NEW SURGE  NEW SURGE                                                 BOTTOM    AVERAGE
        STATION  ELEVATION    10-YEAR   100-YEAR                                                  SLOPE    A-ZONES
  OF     40.000    -30.302      0.000      8.865      0.000      0.000      0.000      0.000      0.013      0.000


            END        END  NEW SURGE  NEW SURGE                                                 BOTTOM    AVERAGE
        STATION  ELEVATION    10-YEAR   100-YEAR                                                  SLOPE    A-ZONES
  OF     42.000    -30.277      0.000      8.865      0.000      0.000      0.000      0.000      0.013      0.000


            END        END  NEW SURGE  NEW SURGE                                                 BOTTOM    AVERAGE
        STATION  ELEVATION    10-YEAR   100-YEAR                                                  SLOPE    A-ZONES
  OF     44.000    -30.252      0.000      8.865      0.000      0.000      0.000      0.000      0.013      0.000


            END        END  NEW SURGE  NEW SURGE                                                 BOTTOM    AVERAGE
        STATION  ELEVATION    10-YEAR   100-YEAR                                                  SLOPE    A-ZONES
  OF     46.000    -30.227      0.000      8.865      0.000      0.000      0.000      0.000      0.013      0.000


            END        END  NEW SURGE  NEW SURGE                                                 BOTTOM    AVERAGE
        STATION  ELEVATION    10-YEAR   100-YEAR                                                  SLOPE    A-ZONES
  OF     48.000    -30.202      0.000      8.865      0.000      0.000      0.000      0.000      0.013      0.000


            END        END  NEW SURGE  NEW SURGE                                                 BOTTOM    AVERAGE
        STATION  ELEVATION    10-YEAR   100-YEAR                                                  SLOPE    A-ZONES
  OF     50.000    -30.177      0.000      8.865      0.000      0.000      0.000      0.000      0.014      0.000


            END        END  NEW SURGE  NEW SURGE                                                 BOTTOM    AVERAGE
        STATION  ELEVATION    10-YEAR   100-YEAR                                                  SLOPE    A-ZONES
  OF     52.000    -30.148      0.000      8.865      0.000      0.000      0.000      0.000      0.014      0.000


            END        END  NEW SURGE  NEW SURGE                                                 BOTTOM    AVERAGE
        STATION  ELEVATION    10-YEAR   100-YEAR                                                  SLOPE    A-ZONES
  OF     54.000    -30.119      0.000      8.865      0.000      0.000      0.000      0.000      0.015      0.000


            END        END  NEW SURGE  NEW SURGE                                                 BOTTOM    AVERAGE
        STATION  ELEVATION    10-YEAR   100-YEAR                                                  SLOPE    A-ZONES
  OF     56.000    -30.089      0.000      8.865      0.000      0.000      0.000      0.000      0.015      0.000


            END        END  NEW SURGE  NEW SURGE                                                 BOTTOM    AVERAGE
        STATION  ELEVATION    10-YEAR   100-YEAR                                                  SLOPE    A-ZONES
  OF     58.000    -30.059      0.000      8.865      0.000      0.000      0.000      0.000      0.015      0.000


            END        END  NEW SURGE  NEW SURGE                                                 BOTTOM    AVERAGE
        STATION  ELEVATION    10-YEAR   100-YEAR                                                  SLOPE    A-ZONES
  OF     60.000    -30.029      0.000      8.865      0.000      0.000      0.000      0.000      0.015      0.000


            END        END  NEW SURGE  NEW SURGE                                                 BOTTOM    AVERAGE
        STATION  ELEVATION    10-YEAR   100-YEAR                                                  SLOPE    A-ZONES
  OF     62.000    -30.000      0.000      8.865      0.000      0.000      0.000      0.000      0.015      0.000


            END        END  NEW SURGE  NEW SURGE                                                 BOTTOM    AVERAGE
        STATION  ELEVATION    10-YEAR   100-YEAR                                                  SLOPE    A-ZONES
  OF     64.000    -29.970      0.000      8.865      0.000      0.000      0.000      0.000      0.015      0.000


            END        END  NEW SURGE  NEW SURGE                                                 BOTTOM    AVERAGE
        STATION  ELEVATION    10-YEAR   100-YEAR                                                  SLOPE    A-ZONES
  OF     66.000    -29.940      0.000      8.865      0.000      0.000      0.000      0.000      0.015      0.000


            END        END  NEW SURGE  NEW SURGE                                                 BOTTOM    AVERAGE
        STATION  ELEVATION    10-YEAR   100-YEAR                                                  SLOPE    A-ZONES
  OF     68.000    -29.910      0.000      8.865      0.000      0.000      0.000      0.000      0.015      0.000


            END        END  NEW SURGE  NEW SURGE                                                 BOTTOM    AVERAGE
        STATION  ELEVATION    10-YEAR   100-YEAR                                                  SLOPE    A-ZONES
  OF     70.000    -29.880      0.000      8.865      0.000      0.000      0.000      0.000      0.015      0.000


            END        END  NEW SURGE  NEW SURGE                                                 BOTTOM    AVERAGE
        STATION  ELEVATION    10-YEAR   100-YEAR                                                  SLOPE    A-ZONES
  OF     72.000    -29.851      0.000      8.865      0.000      0.000      0.000      0.000      0.015      0.000


            END        END  NEW SURGE  NEW SURGE                                                 BOTTOM    AVERAGE
        STATION  ELEVATION    10-YEAR   100-YEAR                                                  SLOPE    A-ZONES
  OF     74.000    -29.821      0.000      8.865      0.000      0.000      0.000      0.000      0.015      0.000


            END        END  NEW SURGE  NEW SURGE                                                 BOTTOM    AVERAGE
        STATION  ELEVATION    10-YEAR   100-YEAR                                                  SLOPE    A-ZONES
  OF     76.000    -29.791      0.000      8.865      0.000      0.000      0.000      0.000      0.015      0.000


            END        END  NEW SURGE  NEW SURGE                                                 BOTTOM    AVERAGE
        STATION  ELEVATION    10-YEAR   100-YEAR                                                  SLOPE    A-ZONES
  OF     78.000    -29.761      0.000      8.865      0.000      0.000      0.000      0.000      0.015      0.000


            END        END  NEW SURGE  NEW SURGE                                                 BOTTOM    AVERAGE
        STATION  ELEVATION    10-YEAR   100-YEAR                                                  SLOPE    A-ZONES
  OF     80.000    -29.732      0.000      8.865      0.000      0.000      0.000      0.000      0.015      0.000


            END        END  NEW SURGE  NEW SURGE                                                 BOTTOM    AVERAGE
        STATION  ELEVATION    10-YEAR   100-YEAR                                                  SLOPE    A-ZONES
  OF     82.000    -29.702      0.000      8.865      0.000      0.000      0.000      0.000      0.015      0.000


            END        END  NEW SURGE  NEW SURGE                                                 BOTTOM    AVERAGE
        STATION  ELEVATION    10-YEAR   100-YEAR                                                  SLOPE    A-ZONES
  OF     84.000    -29.672      0.000      8.865      0.000      0.000      0.000      0.000      0.015      0.000


            END        END  NEW SURGE  NEW SURGE                                                 BOTTOM    AVERAGE
        STATION  ELEVATION    10-YEAR   100-YEAR                                                  SLOPE    A-ZONES
  OF     86.000    -29.642      0.000      8.865      0.000      0.000      0.000      0.000      0.015      0.000


            END        END  NEW SURGE  NEW SURGE                                                 BOTTOM    AVERAGE
        STATION  ELEVATION    10-YEAR   100-YEAR                                                  SLOPE    A-ZONES
  OF     88.000    -29.613      0.000      8.865      0.000      0.000      0.000      0.000      0.015      0.000


            END        END  NEW SURGE  NEW SURGE                                                 BOTTOM    AVERAGE
        STATION  ELEVATION    10-YEAR   100-YEAR                                                  SLOPE    A-ZONES
  OF     90.000    -29.583      0.000      8.865      0.000      0.000      0.000      0.000      0.015      0.000


            END        END  NEW SURGE  NEW SURGE                                                 BOTTOM    AVERAGE
        STATION  ELEVATION    10-YEAR   100-YEAR                                                  SLOPE    A-ZONES
  OF     92.000    -29.553      0.000      8.865      0.000      0.000      0.000      0.000      0.015      0.000


            END        END  NEW SURGE  NEW SURGE                                                 BOTTOM    AVERAGE
        STATION  ELEVATION    10-YEAR   100-YEAR                                                  SLOPE    A-ZONES
  OF     94.000    -29.523      0.000      8.865      0.000      0.000      0.000      0.000      0.015      0.000


            END        END  NEW SURGE  NEW SURGE                                                 BOTTOM    AVERAGE
        STATION  ELEVATION    10-YEAR   100-YEAR                                                  SLOPE    A-ZONES
  OF     96.000    -29.493      0.000      8.865      0.000      0.000      0.000      0.000      0.015      0.000


            END        END  NEW SURGE  NEW SURGE                                                 BOTTOM    AVERAGE
        STATION  ELEVATION    10-YEAR   100-YEAR                                                  SLOPE    A-ZONES
  OF     98.000    -29.464      0.000      8.865      0.000      0.000      0.000      0.000      0.015      0.000


            END        END  NEW SURGE  NEW SURGE                                                 BOTTOM    AVERAGE
        STATION  ELEVATION    10-YEAR   100-YEAR                                                  SLOPE    A-ZONES
  OF    100.000    -29.434      0.000      8.865      0.000      0.000      0.000      0.000      0.015      0.000


            END        END  NEW SURGE  NEW SURGE                                                 BOTTOM    AVERAGE
        STATION  ELEVATION    10-YEAR   100-YEAR                                                  SLOPE    A-ZONES
  OF    102.000    -29.404      0.000      8.865      0.000      0.000      0.000      0.000      0.015      0.000


            END        END  NEW SURGE  NEW SURGE                                                 BOTTOM    AVERAGE
        STATION  ELEVATION    10-YEAR   100-YEAR                                                  SLOPE    A-ZONES
  OF    104.000    -29.374      0.000      8.865      0.000      0.000      0.000      0.000      0.015      0.000


            END        END  NEW SURGE  NEW SURGE                                                 BOTTOM    AVERAGE
        STATION  ELEVATION    10-YEAR   100-YEAR                                                  SLOPE    A-ZONES
  OF    106.000    -29.345      0.000      8.865      0.000      0.000      0.000      0.000      0.015      0.000


            END        END  NEW SURGE  NEW SURGE                                                 BOTTOM    AVERAGE
        STATION  ELEVATION    10-YEAR   100-YEAR                                                  SLOPE    A-ZONES
  OF    108.000    -29.315      0.000      8.865      0.000      0.000      0.000      0.000      0.015      0.000


            END        END  NEW SURGE  NEW SURGE                                                 BOTTOM    AVERAGE
        STATION  ELEVATION    10-YEAR   100-YEAR                                                  SLOPE    A-ZONES
  OF    110.000    -29.285      0.000      8.865      0.000      0.000      0.000      0.000      0.015      0.000


            END        END  NEW SURGE  NEW SURGE                                                 BOTTOM    AVERAGE
        STATION  ELEVATION    10-YEAR   100-YEAR                                                  SLOPE    A-ZONES
  OF    112.000    -29.255      0.000      8.865      0.000      0.000      0.000      0.000      0.015      0.000


            END        END  NEW SURGE  NEW SURGE                                                 BOTTOM    AVERAGE
        STATION  ELEVATION    10-YEAR   100-YEAR                                                  SLOPE    A-ZONES
  OF    114.000    -29.226      0.000      8.865      0.000      0.000      0.000      0.000      0.015      0.000


            END        END  NEW SURGE  NEW SURGE                                                 BOTTOM    AVERAGE
        STATION  ELEVATION    10-YEAR   100-YEAR                                                  SLOPE    A-ZONES
  OF    116.000    -29.196      0.000      8.865      0.000      0.000      0.000      0.000      0.015      0.000


            END        END  NEW SURGE  NEW SURGE                                                 BOTTOM    AVERAGE
        STATION  ELEVATION    10-YEAR   100-YEAR                                                  SLOPE    A-ZONES
  OF    118.000    -29.166      0.000      8.865      0.000      0.000      0.000      0.000      0.015      0.000


            END        END  NEW SURGE  NEW SURGE                                                 BOTTOM    AVERAGE
        STATION  ELEVATION    10-YEAR   100-YEAR                                                  SLOPE    A-ZONES
  OF    120.000    -29.136      0.000      8.865      0.000      0.000      0.000      0.000      0.015      0.000


            END        END  NEW SURGE  NEW SURGE                                                 BOTTOM    AVERAGE
        STATION  ELEVATION    10-YEAR   100-YEAR                                                  SLOPE    A-ZONES
  OF    122.000    -29.106      0.000      8.865      0.000      0.000      0.000      0.000      0.015      0.000


            END        END  NEW SURGE  NEW SURGE                                                 BOTTOM    AVERAGE
        STATION  ELEVATION    10-YEAR   100-YEAR                                                  SLOPE    A-ZONES
  OF    124.000    -29.077      0.000      8.865      0.000      0.000      0.000      0.000      0.015      0.000


            END        END  NEW SURGE  NEW SURGE                                                 BOTTOM    AVERAGE
        STATION  ELEVATION    10-YEAR   100-YEAR                                                  SLOPE    A-ZONES
  OF    126.000    -29.047      0.000      8.865      0.000      0.000      0.000      0.000      0.015      0.000


            END        END  NEW SURGE  NEW SURGE                                                 BOTTOM    AVERAGE
        STATION  ELEVATION    10-YEAR   100-YEAR                                                  SLOPE    A-ZONES
  OF    128.000    -29.017      0.000      8.865      0.000      0.000      0.000      0.000      0.015      0.000


            END        END  NEW SURGE  NEW SURGE                                                 BOTTOM    AVERAGE
        STATION  ELEVATION    10-YEAR   100-YEAR                                                  SLOPE    A-ZONES
  OF    130.000    -28.987      0.000      8.865      0.000      0.000      0.000      0.000      0.015      0.000


            END        END  NEW SURGE  NEW SURGE                                                 BOTTOM    AVERAGE
        STATION  ELEVATION    10-YEAR   100-YEAR                                                  SLOPE    A-ZONES
  OF    132.000    -28.958      0.000      8.865      0.000      0.000      0.000      0.000      0.015      0.000


            END        END  NEW SURGE  NEW SURGE                                                 BOTTOM    AVERAGE
        STATION  ELEVATION    10-YEAR   100-YEAR                                                  SLOPE    A-ZONES
  OF    134.000    -28.928      0.000      8.865      0.000      0.000      0.000      0.000      0.015      0.000


            END        END  NEW SURGE  NEW SURGE                                                 BOTTOM    AVERAGE
        STATION  ELEVATION    10-YEAR   100-YEAR                                                  SLOPE    A-ZONES
  OF    136.000    -28.898      0.000      8.865      0.000      0.000      0.000      0.000      0.015      0.000


            END        END  NEW SURGE  NEW SURGE                                                 BOTTOM    AVERAGE
        STATION  ELEVATION    10-YEAR   100-YEAR                                                  SLOPE    A-ZONES
  OF    138.000    -28.868      0.000      8.865      0.000      0.000      0.000      0.000      0.010      0.000


            END        END  NEW SURGE  NEW SURGE                                                 BOTTOM    AVERAGE
        STATION  ELEVATION    10-YEAR   100-YEAR                                                  SLOPE    A-ZONES
  OF    140.000    -28.858      0.000      8.865      0.000      0.000      0.000      0.000      0.002      0.000


            END        END  NEW SURGE  NEW SURGE                                                 BOTTOM    AVERAGE
        STATION  ELEVATION    10-YEAR   100-YEAR                                                  SLOPE    A-ZONES
  OF    142.000    -28.859      0.000      8.865      0.000      0.000      0.000      0.000      0.000      0.000


            END        END  NEW SURGE  NEW SURGE                                                 BOTTOM    AVERAGE
        STATION  ELEVATION    10-YEAR   100-YEAR                                                  SLOPE    A-ZONES
  OF    144.000    -28.859      0.000      8.865      0.000      0.000      0.000      0.000      0.000      0.000


            END        END  NEW SURGE  NEW SURGE                                                 BOTTOM    AVERAGE
        STATION  ELEVATION    10-YEAR   100-YEAR                                                  SLOPE    A-ZONES
  OF    146.000    -28.860      0.000      8.865      0.000      0.000      0.000      0.000      0.000      0.000


            END        END  NEW SURGE  NEW SURGE                                                 BOTTOM    AVERAGE
        STATION  ELEVATION    10-YEAR   100-YEAR                                                  SLOPE    A-ZONES
  OF    148.000    -28.860      0.000      8.865      0.000      0.000      0.000      0.000      0.000      0.000


            END        END  NEW SURGE  NEW SURGE                                                 BOTTOM    AVERAGE
        STATION  ELEVATION    10-YEAR   100-YEAR                                                  SLOPE    A-ZONES
  OF    150.000    -28.861      0.000      8.865      0.000      0.000      0.000      0.000      0.000      0.000


            END        END  NEW SURGE  NEW SURGE                                                 BOTTOM    AVERAGE
        STATION  ELEVATION    10-YEAR   100-YEAR                                                  SLOPE    A-ZONES
  OF    152.000    -28.861      0.000      8.865      0.000      0.000      0.000      0.000      0.000      0.000


            END        END  NEW SURGE  NEW SURGE                                                 BOTTOM    AVERAGE
        STATION  ELEVATION    10-YEAR   100-YEAR                                                  SLOPE    A-ZONES
  OF    154.000    -28.862      0.000      8.865      0.000      0.000      0.000      0.000      0.000      0.000


            END        END  NEW SURGE  NEW SURGE                                                 BOTTOM    AVERAGE
        STATION  ELEVATION    10-YEAR   100-YEAR                                                  SLOPE    A-ZONES
  OF    156.000    -28.862      0.000      8.865      0.000      0.000      0.000      0.000      0.000      0.000


            END        END  NEW SURGE  NEW SURGE                                                 BOTTOM    AVERAGE
        STATION  ELEVATION    10-YEAR   100-YEAR                                                  SLOPE    A-ZONES
  OF    158.000    -28.863      0.000      8.865      0.000      0.000      0.000      0.000      0.000      0.000


            END        END  NEW SURGE  NEW SURGE                                                 BOTTOM    AVERAGE
        STATION  ELEVATION    10-YEAR   100-YEAR                                                  SLOPE    A-ZONES
  OF    160.000    -28.863      0.000      8.865      0.000      0.000      0.000      0.000      0.000      0.000


            END        END  NEW SURGE  NEW SURGE                                                 BOTTOM    AVERAGE
        STATION  ELEVATION    10-YEAR   100-YEAR                                                  SLOPE    A-ZONES
  OF    162.000    -28.864      0.000      8.865      0.000      0.000      0.000      0.000      0.000      0.000


            END        END  NEW SURGE  NEW SURGE                                                 BOTTOM    AVERAGE
        STATION  ELEVATION    10-YEAR   100-YEAR                                                  SLOPE    A-ZONES
  OF    164.000    -28.864      0.000      8.865      0.000      0.000      0.000      0.000      0.000      0.000


            END        END  NEW SURGE  NEW SURGE                                                 BOTTOM    AVERAGE
        STATION  ELEVATION    10-YEAR   100-YEAR                                                  SLOPE    A-ZONES
  OF    166.000    -28.865      0.000      8.865      0.000      0.000      0.000      0.000      0.000      0.000


            END        END  NEW SURGE  NEW SURGE                                                 BOTTOM    AVERAGE
        STATION  ELEVATION    10-YEAR   100-YEAR                                                  SLOPE    A-ZONES
  OF    168.000    -28.864      0.000      8.865      0.000      0.000      0.000      0.000      0.001      0.000


            END        END  NEW SURGE  NEW SURGE                                                 BOTTOM    AVERAGE
        STATION  ELEVATION    10-YEAR   100-YEAR                                                  SLOPE    A-ZONES
  OF    170.000    -28.863      0.000      8.865      0.000      0.000      0.000      0.000      0.001      0.000


            END        END  NEW SURGE  NEW SURGE                                                 BOTTOM    AVERAGE
        STATION  ELEVATION    10-YEAR   100-YEAR                                                  SLOPE    A-ZONES
  OF    172.000    -28.862      0.000      8.865      0.000      0.000      0.000      0.000      0.001      0.000


            END        END  NEW SURGE  NEW SURGE                                                 BOTTOM    AVERAGE
        STATION  ELEVATION    10-YEAR   100-YEAR                                                  SLOPE    A-ZONES
  OF    174.000    -28.861      0.000      8.865      0.000      0.000      0.000      0.000      0.001      0.000


            END        END  NEW SURGE  NEW SURGE                                                 BOTTOM    AVERAGE
        STATION  ELEVATION    10-YEAR   100-YEAR                                                  SLOPE    A-ZONES
  OF    176.000    -28.860      0.000      8.865      0.000      0.000      0.000      0.000      0.001      0.000


            END        END  NEW SURGE  NEW SURGE                                                 BOTTOM    AVERAGE
        STATION  ELEVATION    10-YEAR   100-YEAR                                                  SLOPE    A-ZONES
  OF    178.000    -28.859      0.000      8.865      0.000      0.000      0.000      0.000      0.001      0.000


            END        END  NEW SURGE  NEW SURGE                                                 BOTTOM    AVERAGE
        STATION  ELEVATION    10-YEAR   100-YEAR                                                  SLOPE    A-ZONES
  OF    180.000    -28.858      0.000      8.865      0.000      0.000      0.000      0.000      0.001      0.000


[...]

                                        566.00                 1.00                 8.86

                                        582.00                 1.00                 8.86

                                        602.00                 1.00                 8.86

                                        622.00                 1.00                 8.86

                                        638.00                 1.00                 8.86

                                        642.00                 1.00                 8.86

                                        644.00                 1.00                 8.86

                                        648.00                 1.00                 8.86

                                        650.00                 1.00                 8.86

                                        654.00                 1.00                 8.86

                                        658.00                 1.00                 8.86

                                        660.00                 1.00                 8.86

                                        664.00                 1.00                 8.87

                                        668.00                 1.00                 8.87

                                        670.00                 1.00                 8.87

                                        674.00                 1.00                 8.87

                                        676.00                 1.00                 8.87

                                        680.00                 1.00                 8.87

                                        682.00                 1.00                 8.87

                                        686.00                 1.00                 8.87

                                        690.00                 1.00                 8.87

                                        692.00                 1.00                 8.88

                                        696.00                 1.00                 8.88

                                        700.00                 1.00                 8.88

                                        702.00                 1.00                 8.88

                                        706.00                 1.00                 8.88

                                        708.00                 1.00                 8.88

                                        712.00                 1.00                 8.88

                                        716.00                 1.00                 8.88

                                        718.00                 1.00                 8.88

                                        721.80                 1.00                 8.88

                                        725.10                 1.00                 8.89

                                        728.30                 1.00                 8.90

                                        731.60                 1.00                 8.91

                                        734.90                 1.00                 8.92

                                        738.20                 1.00                 8.93

                                        741.50                 1.00                 8.94

                                        744.70                 1.00                 8.96

                                        748.00                 1.00                 8.97

                                        751.30                 1.00                 8.99

                                        754.60                 1.00                 9.01

                                        757.90                 1.00                 9.04

                                        761.20                 1.00                 9.06

                                        764.40                 1.00                 9.08

                                        767.70                 1.00                 9.10

                                        771.00                 1.00                 9.12

                                        774.30                 1.00                 9.18

                                        777.60                 1.00                 9.26

                                        780.80                 1.00                 9.35

                                        784.10                 1.00                 9.50

                                        787.40                 1.00                 9.68



                                                       PART5  LOCATION OF V ZONES

                                             STATION OF GUTTER          LOCATION OF ZONE

                                                      766.26               WINDWARD



                                                   PART6 NUMBERED A ZONES AND V ZONES

                                        STATION OF GUTTER  ELEVATION  ZONE DESIGNATION   FHF


                                               0.00          15.44

                                                                          V22  EL=15     120

                                             124.11          15.50

                                                                          V22  EL=16     120

                                             454.00          16.02

                                                                          V22  EL=16     120

                                             456.00          16.04

                                                                          V22  EL=16     120

                                             490.00          16.17

                                                                          V22  EL=16     120

                                             492.00          16.18

                                                                          V22  EL=16     120

                                             516.00          16.27

                                                                          V22  EL=16     120

                                             518.00          16.28

                                                                          V22  EL=16     120

                                             538.00          16.36

                                                                          V22  EL=16     120

                                             540.00          16.38

                                                                          V22  EL=16     120

                                             564.00          15.79

                                                                          V22  EL=16     120

                                             566.00          15.80

                                                                          V22  EL=16     120

                                             580.00          15.78

                                                                          V22  EL=16     120

                                             582.00          15.77

                                                                          V22  EL=16     120

                                             600.00          15.78

                                                                          V22  EL=16     120

                                             602.00          15.78

                                                                          V22  EL=16     120

                                             620.00          15.76

                                                                          V22  EL=16     120

                                             622.00          15.75

                                                                          V22  EL=16     120

                                             636.00          15.75

                                                                          V22  EL=16     120

                                             638.00          15.76

                                                                          V22  EL=16     120

                                             640.00          15.76

                                                                          V22  EL=16     120

                                             642.00          15.77

                                                                          V22  EL=16     120

                                             644.00          15.77

                                                                          V22  EL=16     120

                                             646.00          15.77

                                                                          V22  EL=16     120

                                             648.00          15.76

                                                                          V22  EL=16     120

                                             650.00          15.77

                                                                          V22  EL=16     120

                                             652.00          15.78

                                                                          V22  EL=16     120

                                             654.00          15.73

                                                                          V22  EL=16     120

                                             656.00          15.65

                                                                          V22  EL=16     120

                                             658.00          15.60

                                                                          V22  EL=16     120

                                             660.00          15.55

                                                                          V22  EL=16     120

                                             661.69          15.50

                                                                          V22  EL=15     120

                                             662.00          15.49

                                                                          V22  EL=15     120

                                             664.00          15.40

                                                                          V22  EL=15     120

                                             666.00          15.26

                                                                          V22  EL=15     120

                                             668.00          15.13

                                                                          V22  EL=15     120

                                             670.00          15.01

                                                                          V22  EL=15     120

                                             672.00          14.94

                                                                          V22  EL=15     120

                                             674.00          14.94

                                                                          V22  EL=15     120

                                             676.00          14.88

                                                                          V22  EL=15     120

                                             678.00          14.86

                                                                          V22  EL=15     120

                                             680.00          14.73

                                                                          V22  EL=15     120

                                             682.00          14.61

                                                                          V22  EL=15     120

                                             684.00          14.57

                                                                          V22  EL=15     120

                                             686.00          14.55

                                                                          V22  EL=15     120

                                             687.16          14.50

                                                                          V22  EL=14     120

                                             688.00          14.46

                                                                          V22  EL=14     120

                                             690.00          14.35

                                                                          V22  EL=14     120

                                             692.00          14.25

                                                                          V22  EL=14     120

                                             694.00          14.17

                                                                          V22  EL=14     120

                                             696.00          14.09

                                                                          V22  EL=14     120

                                             698.00          14.00

                                                                          V22  EL=14     120

                                             700.00          13.92

                                                                          V22  EL=14     120

                                             702.00          13.79

                                                                          V22  EL=14     120

                                             704.00          13.73

                                                                          V22  EL=14     120

                                             706.00          13.59

                                                                          V22  EL=14     120

                                             707.64          13.50

                                                                          V22  EL=13     120

                                             708.00          13.48

                                                                          V22  EL=13     120

                                             710.00          13.37

                                                                          V22  EL=13     120

                                             712.00          13.26

                                                                          V22  EL=13     120

                                             714.00          13.14

                                                                          V22  EL=13     120

                                             716.00          13.05

                                                                          V22  EL=13     120

                                             718.00          12.99

                                                                          V22  EL=13     120

                                             720.00          12.94

                                                                          V22  EL=13     120

                                             721.80          12.89

                                                                          V22  EL=13     120

                                             725.10          12.88

                                                                          V22  EL=13     120

                                             728.30          12.80

                                                                          V22  EL=13     120

                                             731.60          12.70

                                                                          V22  EL=13     120

                                             734.90          12.60

                                                                          V22  EL=13     120

                                             736.45          12.50

                                                                          V22  EL=12     120

                                             738.20          12.39

                                                                          V22  EL=12     120

                                             741.50          12.26

                                                                          V22  EL=12     120

                                             744.70          12.17

                                                                          V22  EL=12     120

                                             748.00          11.99

                                                                          V22  EL=12     120

                                             751.30          11.83

                                                                          V22  EL=12     120

                                             754.60          11.79

                                                                          V22  EL=12     120

                                             757.90          11.76

                                                                          V22  EL=12     120

                                             761.20          11.61

                                                                          V23  EL=12     130

                                             762.63          11.50

                                                                          V23  EL=11     130

                                             764.40          11.36

                                                                          V23  EL=11     130

                                             766.26          11.19

                                                                          A19  EL=11      95

                                             767.70          11.05

                                                                          A19  EL=11      95

                                             771.00          10.65

                                                                          A19  EL=11      95

                                             774.30          10.60

                                                                          A19  EL=11      95

                                             777.60          10.66

                                                                          A19  EL=11      95

                                             779.82          10.50

                                                                          A19  EL=10      95

                                             780.80          10.43

                                                                          A19  EL=10      95

                                             784.10          10.27

                                                                          A19  EL=10      95

                                             787.40          10.20

                                                                          A19  EL=10      95

                                             792.20           9.68



                                                  ZONE TERMINATED AT END OF TRANSECT



                                                  PART 7   POSTSCRIPT NOTES


                         PS#  1   START(416805.4383,4843718.5612)                                              
                         PS#  2   END(416941.1095,4843973.5881)                                                
