 WAVE HEIGHT COMPUTATIONS FOR FLOOD INSURANCE STUDIES (WHAFIS VERSION 4.0G, 08_2007)
 Executed on: Thu Feb 20 14:57:35 2020
 Input file:  C:\FEMA-TransectAnalysis\LOMR-TransectAnalysis-Harpswell\3_whafis\whafis4\CM-123-1.dat                                          
 Output file: C:\FEMA-TransectAnalysis\LOMR-TransectAnalysis-Harpswell\3_whafis\whafis4\CM-123-1.out                                          



                                                              header                                                                
                                                     THIS IS A 100-YEAR CASE


                                       THE FOLLOWING NON-DEFAULT WIND SPEEDS ARE BEING USED
                                            WINDIF  56.14  WINDOF  56.14  WINDVH  60.00

                                                             PART1 INPUT

          IE      0.000    -18.610      1.000      1.000      9.023      5.627      5.021     56.140      0.034      0.000
          OF      1.000    -18.576      0.000      9.023      0.000      0.000      0.000      0.000      0.034      0.000
          OF      2.000    -18.542      0.000      9.023      0.000      0.000      0.000      0.000      0.034      0.000
          OF      3.000    -18.508      0.000      9.023      0.000      0.000      0.000      0.000      0.034      0.000
          OF      4.000    -18.474      0.000      9.023      0.000      0.000      0.000      0.000      0.034      0.000
          OF      5.000    -18.441      0.000      9.023      0.000      0.000      0.000      0.000      0.034      0.000
          OF      6.000    -18.407      0.000      9.023      0.000      0.000      0.000      0.000      0.034      0.000
          OF      7.000    -18.373      0.000      9.023      0.000      0.000      0.000      0.000      0.034      0.000
          OF      8.000    -18.339      0.000      9.023      0.000      0.000      0.000      0.000      0.034      0.000
          OF      9.000    -18.305      0.000      9.023      0.000      0.000      0.000      0.000      0.034      0.000
          OF     10.000    -18.271      0.000      9.023      0.000      0.000      0.000      0.000      0.034      0.000
          OF     11.000    -18.237      0.000      9.023      0.000      0.000      0.000      0.000      0.034      0.000
          OF     12.000    -18.203      0.000      9.023      0.000      0.000      0.000      0.000      0.034      0.000
          OF     13.000    -18.169      0.000      9.023      0.000      0.000      0.000      0.000      0.034      0.000
          OF     14.000    -18.135      0.000      9.023      0.000      0.000      0.000      0.000      0.034      0.000
          OF     15.000    -18.101      0.000      9.023      0.000      0.000      0.000      0.000      0.034      0.000
          OF     16.000    -18.068      0.000      9.023      0.000      0.000      0.000      0.000      0.034      0.000
          OF     17.000    -18.034      0.000      9.023      0.000      0.000      0.000      0.000      0.034      0.000
          OF     18.000    -18.000      0.000      9.023      0.000      0.000      0.000      0.000      0.034      0.000
          OF     19.000    -17.966      0.000      9.023      0.000      0.000      0.000      0.000      0.034      0.000
          OF     20.000    -17.932      0.000      9.023      0.000      0.000      0.000      0.000      0.034      0.000
          OF     21.000    -17.898      0.000      9.023      0.000      0.000      0.000      0.000      0.034      0.000
          OF     22.000    -17.864      0.000      9.023      0.000      0.000      0.000      0.000      0.034      0.000
          OF     23.000    -17.830      0.000      9.023      0.000      0.000      0.000      0.000      0.034      0.000
          OF     24.000    -17.796      0.000      9.023      0.000      0.000      0.000      0.000      0.034      0.000
          OF     25.000    -17.762      0.000      9.023      0.000      0.000      0.000      0.000      0.034      0.000
          OF     26.000    -17.728      0.000      9.023      0.000      0.000      0.000      0.000      0.034      0.000
          OF     27.000    -17.694      0.000      9.023      0.000      0.000      0.000      0.000      0.034      0.000
          OF     28.000    -17.661      0.000      9.023      0.000      0.000      0.000      0.000      0.034      0.000
          OF     29.000    -17.627      0.000      9.023      0.000      0.000      0.000      0.000      0.034      0.000
          OF     30.000    -17.593      0.000      9.023      0.000      0.000      0.000      0.000      0.034      0.000
          OF     31.000    -17.559      0.000      9.023      0.000      0.000      0.000      0.000      0.034      0.000
          OF     32.000    -17.525      0.000      9.023      0.000      0.000      0.000      0.000      0.034      0.000
          OF     33.000    -17.491      0.000      9.023      0.000      0.000      0.000      0.000      0.034      0.000
          OF     34.000    -17.457      0.000      9.023      0.000      0.000      0.000      0.000      0.034      0.000
          OF     35.000    -17.423      0.000      9.023      0.000      0.000      0.000      0.000      0.034      0.000
          OF     36.000    -17.389      0.000      9.023      0.000      0.000      0.000      0.000      0.034      0.000
          OF     37.000    -17.355      0.000      9.023      0.000      0.000      0.000      0.000      0.034      0.000
          OF     38.000    -17.321      0.000      9.023      0.000      0.000      0.000      0.000      0.034      0.000
          OF     39.000    -17.287      0.000      9.023      0.000      0.000      0.000      0.000      0.034      0.000
          OF     40.000    -17.254      0.000      9.023      0.000      0.000      0.000      0.000      0.034      0.000
          OF     41.000    -17.220      0.000      9.023      0.000      0.000      0.000      0.000      0.034      0.000
          OF     42.000    -17.186      0.000      9.023      0.000      0.000      0.000      0.000      0.034      0.000
          OF     43.000    -17.152      0.000      9.023      0.000      0.000      0.000      0.000      0.034      0.000
          OF     44.000    -17.118      0.000      9.023      0.000      0.000      0.000      0.000      0.034      0.000
          OF     45.000    -17.084      0.000      9.023      0.000      0.000      0.000      0.000      0.034      0.000
          OF     46.000    -17.050      0.000      9.023      0.000      0.000      0.000      0.000      0.034      0.000
          OF     47.000    -17.016      0.000      9.023      0.000      0.000      0.000      0.000      0.034      0.000
          OF     48.000    -16.982      0.000      9.023      0.000      0.000      0.000      0.000      0.034      0.000
          OF     49.000    -16.948      0.000      9.023      0.000      0.000      0.000      0.000      0.034      0.000
          OF     50.000    -16.914      0.000      9.023      0.000      0.000      0.000      0.000      0.034      0.000
          OF     51.000    -16.881      0.000      9.023      0.000      0.000      0.000      0.000      0.034      0.000
          OF     52.000    -16.847      0.000      9.023      0.000      0.000      0.000      0.000      0.034      0.000
          OF     53.000    -16.813      0.000      9.023      0.000      0.000      0.000      0.000      0.034      0.000
          OF     54.000    -16.779      0.000      9.023      0.000      0.000      0.000      0.000      0.034      0.000
          OF     55.000    -16.745      0.000      9.023      0.000      0.000      0.000      0.000      0.034      0.000
          OF     56.000    -16.711      0.000      9.023      0.000      0.000      0.000      0.000      0.034      0.000
          OF     57.000    -16.677      0.000      9.023      0.000      0.000      0.000      0.000      0.034      0.000
          OF     58.000    -16.643      0.000      9.023      0.000      0.000      0.000      0.000      0.034      0.000
          OF     59.000    -16.609      0.000      9.023      0.000      0.000      0.000      0.000      0.034      0.000
          OF     60.000    -16.575      0.000      9.023      0.000      0.000      0.000      0.000      0.034      0.000
          OF     61.000    -16.541      0.000      9.023      0.000      0.000      0.000      0.000      0.034      0.000
          OF     62.000    -16.507      0.000      9.023      0.000      0.000      0.000      0.000      0.034      0.000
          OF     63.000    -16.474      0.000      9.023      0.000      0.000      0.000      0.000      0.034      0.000
          OF     64.000    -16.440      0.000      9.023      0.000      0.000      0.000      0.000      0.034      0.000
          OF     65.000    -16.406      0.000      9.023      0.000      0.000      0.000      0.000      0.034      0.000
          OF     66.000    -16.372      0.000      9.023      0.000      0.000      0.000      0.000      0.034      0.000
          OF     67.000    -16.338      0.000      9.023      0.000      0.000      0.000      0.000      0.034      0.000
          OF     68.000    -16.304      0.000      9.023      0.000      0.000      0.000      0.000      0.034      0.000
          OF     69.000    -16.270      0.000      9.023      0.000      0.000      0.000      0.000      0.034      0.000
          OF     70.000    -16.236      0.000      9.023      0.000      0.000      0.000      0.000      0.034      0.000
          OF     71.000    -16.202      0.000      9.023      0.000      0.000      0.000      0.000      0.034      0.000
          OF     72.000    -16.168      0.000      9.023      0.000      0.000      0.000      0.000      0.034      0.000
          OF     73.000    -16.134      0.000      9.023      0.000      0.000      0.000      0.000      0.034      0.000
          OF     74.000    -16.100      0.000      9.023      0.000      0.000      0.000      0.000      0.034      0.000
          OF     75.000    -16.067      0.000      9.023      0.000      0.000      0.000      0.000      0.034      0.000
          OF     76.000    -16.033      0.000      9.023      0.000      0.000      0.000      0.000      0.034      0.000
          OF     77.000    -15.999      0.000      9.023      0.000      0.000      0.000      0.000      0.034      0.000
          OF     78.000    -15.965      0.000      9.023      0.000      0.000      0.000      0.000      0.034      0.000
          OF     79.000    -15.931      0.000      9.023      0.000      0.000      0.000      0.000      0.034      0.000
          OF     80.000    -15.897      0.000      9.023      0.000      0.000      0.000      0.000      0.034      0.000
          OF     81.000    -15.863      0.000      9.023      0.000      0.000      0.000      0.000      0.034      0.000
          OF     82.000    -15.829      0.000      9.023      0.000      0.000      0.000      0.000      0.034      0.000
          OF     83.000    -15.795      0.000      9.023      0.000      0.000      0.000      0.000      0.034      0.000
          OF     84.000    -15.761      0.000      9.023      0.000      0.000      0.000      0.000      0.034      0.000
          OF     85.000    -15.727      0.000      9.023      0.000      0.000      0.000      0.000      0.034      0.000
          OF     86.000    -15.694      0.000      9.023      0.000      0.000      0.000      0.000      0.034      0.000
          OF     87.000    -15.660      0.000      9.023      0.000      0.000      0.000      0.000      0.034      0.000
          OF     88.000    -15.626      0.000      9.023      0.000      0.000      0.000      0.000      0.034      0.000
          OF     89.000    -15.592      0.000      9.023      0.000      0.000      0.000      0.000      0.034      0.000
          OF     90.000    -15.558      0.000      9.023      0.000      0.000      0.000      0.000      0.034      0.000
          OF     91.000    -15.524      0.000      9.023      0.000      0.000      0.000      0.000      0.034      0.000
          OF     92.000    -15.490      0.000      9.023      0.000      0.000      0.000      0.000      0.034      0.000
          OF     93.000    -15.456      0.000      9.023      0.000      0.000      0.000      0.000      0.034      0.000
          OF     94.000    -15.422      0.000      9.023      0.000      0.000      0.000      0.000      0.034      0.000
          OF     95.000    -15.388      0.000      9.023      0.000      0.000      0.000      0.000      0.034      0.000
          OF     96.000    -15.354      0.000      9.023      0.000      0.000      0.000      0.000      0.034      0.000
          OF     97.000    -15.320      0.000      9.023      0.000      0.000      0.000      0.000      0.034      0.000
          OF     98.000    -15.287      0.000      9.023      0.000      0.000      0.000      0.000      0.034      0.000
          OF     99.000    -15.253      0.000      9.023      0.000      0.000      0.000      0.000      0.034      0.000
          OF    100.000    -15.219      0.000      9.023      0.000      0.000      0.000      0.000      0.034      0.000
          OF    101.000    -15.185      0.000      9.023      0.000      0.000      0.000      0.000      0.034      0.000
          OF    102.000    -15.151      0.000      9.023      0.000      0.000      0.000      0.000      0.034      0.000
          OF    103.000    -15.117      0.000      9.023      0.000      0.000      0.000      0.000      0.034      0.000
          OF    104.000    -15.083      0.000      9.023      0.000      0.000      0.000      0.000      0.034      0.000
          OF    105.000    -15.049      0.000      9.023      0.000      0.000      0.000      0.000      0.034      0.000
          OF    106.000    -15.015      0.000      9.023      0.000      0.000      0.000      0.000      0.034      0.000
          OF    107.000    -14.981      0.000      9.023      0.000      0.000      0.000      0.000      0.034      0.000
          OF    108.000    -14.947      0.000      9.023      0.000      0.000      0.000      0.000      0.034      0.000
          OF    109.000    -14.913      0.000      9.023      0.000      0.000      0.000      0.000      0.034      0.000
          OF    110.000    -14.880      0.000      9.023      0.000      0.000      0.000      0.000      0.034      0.000
          OF    111.000    -14.846      0.000      9.023      0.000      0.000      0.000      0.000      0.034      0.000
          OF    112.000    -14.812      0.000      9.023      0.000      0.000      0.000      0.000      0.034      0.000
          OF    113.000    -14.778      0.000      9.023      0.000      0.000      0.000      0.000      0.034      0.000
          OF    114.000    -14.744      0.000      9.023      0.000      0.000      0.000      0.000      0.034      0.000
          OF    115.000    -14.710      0.000      9.023      0.000      0.000      0.000      0.000      0.034      0.000
          OF    116.000    -14.676      0.000      9.023      0.000      0.000      0.000      0.000      0.034      0.000
          OF    117.000    -14.642      0.000      9.023      0.000      0.000      0.000      0.000      0.034      0.000
          OF    118.000    -14.608      0.000      9.023      0.000      0.000      0.000      0.000      0.034      0.000
          OF    119.000    -14.574      0.000      9.023      0.000      0.000      0.000      0.000      0.034      0.000
          OF    120.000    -14.540      0.000      9.023      0.000      0.000      0.000      0.000      0.034      0.000
          OF    121.000    -14.506      0.000      9.023      0.000      0.000      0.000      0.000      0.034      0.000
          OF    122.000    -14.473      0.000      9.023      0.000      0.000      0.000      0.000      0.034      0.000
          OF    123.000    -14.439      0.000      9.023      0.000      0.000      0.000      0.000      0.029      0.000
          OF    124.000    -14.416      0.000      9.023      0.000      0.000      0.000      0.000      0.020      0.000
          OF    125.000    -14.399      0.000      9.023      0.000      0.000      0.000      0.000      0.018      0.000
          OF    126.000    -14.381      0.000      9.023      0.000      0.000      0.000      0.000      0.018      0.000
          OF    127.000    -14.364      0.000      9.023      0.000      0.000      0.000      0.000      0.017      0.000
          OF    128.000    -14.347      0.000      9.023      0.000      0.000      0.000      0.000      0.018      0.000
          OF    129.000    -14.329      0.000      9.023      0.000      0.000      0.000      0.000      0.018      0.000
          OF    130.000    -14.312      0.000      9.023      0.000      0.000      0.000      0.000      0.017      0.000
          OF    131.000    -14.295      0.000      9.023      0.000      0.000      0.000      0.000      0.018      0.000
          OF    132.000    -14.277      0.000      9.023      0.000      0.000      0.000      0.000      0.018      0.000
          OF    133.000    -14.260      0.000      9.023      0.000      0.000      0.000      0.000      0.017      0.000
          OF    134.000    -14.243      0.000      9.023      0.000      0.000      0.000      0.000      0.018      0.000
          OF    135.000    -14.225      0.000      9.023      0.000      0.000      0.000      0.000      0.018      0.000
          OF    136.000    -14.208      0.000      9.023      0.000      0.000      0.000      0.000      0.017      0.000
          OF    137.000    -14.191      0.000      9.023      0.000      0.000      0.000      0.000      0.018      0.000
          OF    138.000    -14.173      0.000      9.023      0.000      0.000      0.000      0.000      0.018      0.000
          OF    139.000    -14.156      0.000      9.023      0.000      0.000      0.000      0.000      0.017      0.000
          OF    140.000    -14.139      0.000      9.023      0.000      0.000      0.000      0.000      0.018      0.000
          OF    141.000    -14.121      0.000      9.023      0.000      0.000      0.000      0.000      0.018      0.000
          OF    142.000    -14.104      0.000      9.023      0.000      0.000      0.000      0.000      0.018      0.000
          OF    143.000    -14.086      0.000      9.023      0.000      0.000      0.000      0.000      0.018      0.000
          OF    144.000    -14.069      0.000      9.023      0.000      0.000      0.000      0.000      0.017      0.000
          OF    145.000    -14.052      0.000      9.023      0.000      0.000      0.000      0.000      0.017      0.000
          OF    146.000    -14.035      0.000      9.023      0.000      0.000      0.000      0.000      0.018      0.000
          OF    147.000    -14.017      0.000      9.023      0.000      0.000      0.000      0.000      0.018      0.000
          OF    148.000    -14.000      0.000      9.023      0.000      0.000      0.000      0.000      0.018      0.000
          OF    149.000    -13.982      0.000      9.023      0.000      0.000      0.000      0.000      0.018      0.000
          OF    150.000    -13.965      0.000      9.023      0.000      0.000      0.000      0.000      0.017      0.000
          OF    151.000    -13.948      0.000      9.023      0.000      0.000      0.000      0.000      0.018      0.000
          OF    152.000    -13.930      0.000      9.023      0.000      0.000      0.000      0.000      0.018      0.000
          OF    153.000    -13.913      0.000      9.023      0.000      0.000      0.000      0.000      0.017      0.000
          OF    154.000    -13.896      0.000      9.023      0.000      0.000      0.000      0.000      0.018      0.000
          OF    155.000    -13.878      0.000      9.023      0.000      0.000      0.000      0.000      0.018      0.000
          OF    156.000    -13.861      0.000      9.023      0.000      0.000      0.000      0.000      0.017      0.000
          OF    157.000    -13.844      0.000      9.023      0.000      0.000      0.000      0.000      0.018      0.000
          OF    158.000    -13.826      0.000      9.023      0.000      0.000      0.000      0.000      0.018      0.000
          OF    159.000    -13.809      0.000      9.023      0.000      0.000      0.000      0.000      0.017      0.000
          OF    160.000    -13.792      0.000      9.023      0.000      0.000      0.000      0.000      0.018      0.000
          OF    161.000    -13.774      0.000      9.023      0.000      0.000      0.000      0.000      0.018      0.000
          OF    162.000    -13.757      0.000      9.023      0.000      0.000      0.000      0.000      0.017      0.000
          OF    163.000    -13.740      0.000      9.023      0.000      0.000      0.000      0.000      0.018      0.000
          OF    164.000    -13.722      0.000      9.023      0.000      0.000      0.000      0.000      0.018      0.000
          OF    165.000    -13.705      0.000      9.023      0.000      0.000      0.000      0.000      0.017      0.000
          OF    166.000    -13.688      0.000      9.023      0.000      0.000      0.000      0.000      0.018      0.000
          OF    167.000    -13.670      0.000      9.023      0.000      0.000      0.000      0.000      0.018      0.000
          OF    168.000    -13.653      0.000      9.023      0.000      0.000      0.000      0.000      0.017      0.000
          OF    169.000    -13.636      0.000      9.023      0.000      0.000      0.000      0.000      0.018      0.000
          OF    170.000    -13.618      0.000      9.023      0.000      0.000      0.000      0.000      0.018      0.000
          OF    171.000    -13.601      0.000      9.023      0.000      0.000      0.000      0.000      0.017      0.000
          OF    172.000    -13.584      0.000      9.023      0.000      0.000      0.000      0.000      0.018      0.000
          OF    173.000    -13.566      0.000      9.023      0.000      0.000      0.000      0.000      0.018      0.000
          OF    174.000    -13.549      0.000      9.023      0.000      0.000      0.000      0.000      0.018      0.000
          OF    175.000    -13.531      0.000      9.023      0.000      0.000      0.000      0.000      0.018      0.000
          OF    176.000    -13.514      0.000      9.023      0.000      0.000      0.000      0.000      0.017      0.000
          OF    177.000    -13.497      0.000      9.023      0.000      0.000      0.000      0.000      0.018      0.000
          OF    178.000    -13.479      0.000      9.023      0.000      0.000      0.000      0.000      0.018      0.000
          OF    179.000    -13.462      0.000      9.023      0.000      0.000      0.000      0.000      0.017      0.000
          OF    180.000    -13.445      0.000      9.023      0.000      0.000      0.000      0.000      0.018      0.000
          OF    181.000    -13.427      0.000      9.023      0.000      0.000      0.000      0.000      0.018      0.000
          OF    182.000    -13.410      0.000      9.023      0.000      0.000      0.000      0.000      0.017      0.000
          OF    183.000    -13.393      0.000      9.023      0.000      0.000      0.000      0.000      0.018      0.000
          OF    184.000    -13.375      0.000      9.023      0.000      0.000      0.000      0.000      0.018      0.000
          OF    185.000    -13.358      0.000      9.023      0.000      0.000      0.000      0.000      0.017      0.000
          OF    186.000    -13.341      0.000      9.023      0.000      0.000      0.000      0.000      0.018      0.000
          OF    187.000    -13.323      0.000      9.023      0.000      0.000      0.000      0.000      0.018      0.000
          OF    188.000    -13.306      0.000      9.023      0.000      0.000      0.000      0.000      0.017      0.000
          OF    189.000    -13.289      0.000      9.023      0.000      0.000      0.000      0.000      0.018      0.000
          OF    190.000    -13.271      0.000      9.023      0.000      0.000      0.000      0.000      0.018      0.000
          OF    191.000    -13.254      0.000      9.023      0.000      0.000      0.000      0.000      0.017      0.000
          OF    192.000    -13.237      0.000      9.023      0.000      0.000      0.000      0.000      0.018      0.000
          OF    193.000    -13.219      0.000      9.023      0.000      0.000      0.000      0.000      0.018      0.000
          OF    194.000    -13.202      0.000      9.023      0.000      0.000      0.000      0.000      0.017      0.000
          OF    195.000    -13.185      0.000      9.023      0.000      0.000      0.000      0.000      0.018      0.000
          OF    196.000    -13.167      0.000      9.023      0.000      0.000      0.000      0.000      0.018      0.000
          OF    197.000    -13.150      0.000      9.023      0.000      0.000      0.000      0.000      0.018      0.000
          OF    198.000    -13.132      0.000      9.023      0.000      0.000      0.000      0.000      0.018      0.000
          OF    199.000    -13.115      0.000      9.023      0.000      0.000      0.000      0.000      0.017      0.000
          OF    200.000    -13.098      0.000      9.023      0.000      0.000      0.000      0.000      0.018      0.000
          OF    201.000    -13.080      0.000      9.023      0.000      0.000      0.000      0.000      0.018      0.000
          OF    202.000    -13.063      0.000      9.023      0.000      0.000      0.000      0.000      0.017      0.000
          OF    203.000    -13.046      0.000      9.023      0.000      0.000      0.000      0.000      0.018      0.000
          OF    204.000    -13.028      0.000      9.023      0.000      0.000      0.000      0.000      0.018      0.000
          OF    205.000    -13.011      0.000      9.023      0.000      0.000      0.000      0.000      0.017      0.000
          OF    206.000    -12.994      0.000      9.023      0.000      0.000      0.000      0.000      0.018      0.000
          OF    207.000    -12.976      0.000      9.023      0.000      0.000      0.000      0.000      0.018      0.000
          OF    208.000    -12.959      0.000      9.023      0.000      0.000      0.000      0.000      0.017      0.000
          OF    209.000    -12.942      0.000      9.023      0.000      0.000      0.000      0.000      0.018      0.000
          OF    210.000    -12.924      0.000      9.023      0.000      0.000      0.000      0.000      0.018      0.000
          OF    211.000    -12.907      0.000      9.023      0.000      0.000      0.000      0.000      0.017      0.000
          OF    212.000    -12.890      0.000      9.023      0.000      0.000      0.000      0.000      0.018      0.000
          OF    213.000    -12.872      0.000      9.023      0.000      0.000      0.000      0.000      0.018      0.000
          OF    214.000    -12.855      0.000      9.023      0.000      0.000      0.000      0.000      0.017      0.000
          OF    215.000    -12.838      0.000      9.023      0.000      0.000      0.000      0.000      0.018      0.000
          OF    216.000    -12.820      0.000      9.023      0.000      0.000      0.000      0.000      0.018      0.000
          OF    217.000    -12.803      0.000      9.023      0.000      0.000      0.000      0.000      0.017      0.000
          OF    218.000    -12.786      0.000      9.023      0.000      0.000      0.000      0.000      0.018      0.000
          OF    219.000    -12.768      0.000      9.023      0.000      0.000      0.000      0.000      0.018      0.000
          OF    220.000    -12.751      0.000      9.023      0.000      0.000      0.000      0.000      0.016      0.000
          OF    221.000    -12.735      0.000      9.023      0.000      0.000      0.000      0.000      0.015      0.000
          OF    222.000    -12.720      0.000      9.023      0.000      0.000      0.000      0.000      0.014      0.000
          OF    223.000    -12.706      0.000      9.023      0.000      0.000      0.000      0.000      0.014      0.000
          OF    224.000    -12.691      0.000      9.023      0.000      0.000      0.000      0.000      0.015      0.000
          OF    225.000    -12.676      0.000      9.023      0.000      0.000      0.000      0.000      0.015      0.000
          OF    226.000    -12.661      0.000      9.023      0.000      0.000      0.000      0.000      0.014      0.000
          OF    227.000    -12.647      0.000      9.023      0.000      0.000      0.000      0.000      0.014      0.000
          OF    228.000    -12.632      0.000      9.023      0.000      0.000      0.000      0.000      0.015      0.000
          OF    229.000    -12.617      0.000      9.023      0.000      0.000      0.000      0.000      0.015      0.000
          OF    230.000    -12.602      0.000      9.023      0.000      0.000      0.000      0.000      0.014      0.000
          OF    231.000    -12.588      0.000      9.023      0.000      0.000      0.000      0.000      0.014      0.000
          OF    232.000    -12.573      0.000      9.023      0.000      0.000      0.000      0.000      0.015      0.000
          OF    233.000    -12.558      0.000      9.023      0.000      0.000      0.000      0.000      0.015      0.000
          OF    234.000    -12.543      0.000      9.023      0.000      0.000      0.000      0.000      0.014      0.000
          OF    235.000    -12.529      0.000      9.023      0.000      0.000      0.000      0.000      0.014      0.000
          OF    236.000    -12.514      0.000      9.023      0.000      0.000      0.000      0.000      0.015      0.000
          OF    237.000    -12.499      0.000      9.023      0.000      0.000      0.000      0.000      0.015      0.000
          OF    238.000    -12.484      0.000      9.023      0.000      0.000      0.000      0.000      0.014      0.000
          OF    239.000    -12.470      0.000      9.023      0.000      0.000      0.000      0.000      0.014      0.000
          OF    240.000    -12.455      0.000      9.023      0.000      0.000      0.000      0.000      0.015      0.000
          OF    241.000    -12.440      0.000      9.023      0.000      0.000      0.000      0.000      0.015      0.000
          OF    242.000    -12.425      0.000      9.023      0.000      0.000      0.000      0.000      0.014      0.000
          OF    243.000    -12.411      0.000      9.023      0.000      0.000      0.000      0.000      0.014      0.000
          OF    244.000    -12.396      0.000      9.023      0.000      0.000      0.000      0.000      0.015      0.000
          OF    245.000    -12.380      0.000      9.023      0.000      0.000      0.000      0.000      0.015      0.000
          OF    246.000    -12.365      0.000      9.023      0.000      0.000      0.000      0.000      0.015      0.000
          OF    247.000    -12.350      0.000      9.023      0.000      0.000      0.000      0.000      0.015      0.000
          OF    248.000    -12.335      0.000      9.023      0.000      0.000      0.000      0.000      0.015      0.000
          OF    249.000    -12.319      0.000      9.023      0.000      0.000      0.000      0.000      0.015      0.000
          OF    250.000    -12.304      0.000      9.023      0.000      0.000      0.000      0.000      0.015      0.000
          OF    251.000    -12.289      0.000      9.023      0.000      0.000      0.000      0.000      0.015      0.000
          OF    252.000    -12.274      0.000      9.023      0.000      0.000      0.000      0.000      0.015      0.000
          OF    253.000    -12.258      0.000      9.023      0.000      0.000      0.000      0.000      0.015      0.000
          OF    254.000    -12.243      0.000      9.023      0.000      0.000      0.000      0.000      0.015      0.000
          OF    255.000    -12.228      0.000      9.023      0.000      0.000      0.000      0.000      0.015      0.000
          OF    256.000    -12.213      0.000      9.023      0.000      0.000      0.000      0.000      0.015      0.000
          OF    257.000    -12.197      0.000      9.023      0.000      0.000      0.000      0.000      0.015      0.000
          OF    258.000    -12.182      0.000      9.023      0.000      0.000      0.000      0.000      0.015      0.000
          OF    259.000    -12.167      0.000      9.023      0.000      0.000      0.000      0.000      0.015      0.000
          OF    260.000    -12.152      0.000      9.023      0.000      0.000      0.000      0.000      0.015      0.000
          OF    261.000    -12.136      0.000      9.023      0.000      0.000      0.000      0.000      0.015      0.000
          OF    262.000    -12.121      0.000      9.023      0.000      0.000      0.000      0.000      0.015      0.000
          OF    263.000    -12.106      0.000      9.023      0.000      0.000      0.000      0.000      0.015      0.000
          OF    264.000    -12.091      0.000      9.023      0.000      0.000      0.000      0.000      0.015      0.000
          OF    265.000    -12.075      0.000      9.023      0.000      0.000      0.000      0.000      0.015      0.000
          OF    266.000    -12.060      0.000      9.023      0.000      0.000      0.000      0.000      0.015      0.000
          OF    267.000    -12.045      0.000      9.023      0.000      0.000      0.000      0.000      0.015      0.000
          OF    268.000    -12.030      0.000      9.023      0.000      0.000      0.000      0.000      0.015      0.000
          OF    269.000    -12.015      0.000      9.023      0.000      0.000      0.000      0.000      0.015      0.000
          OF    270.000    -11.999      0.000      9.023      0.000      0.000      0.000      0.000      0.015      0.000
          OF    271.000    -11.984      0.000      9.023      0.000      0.000      0.000      0.000      0.015      0.000
          OF    272.000    -11.969      0.000      9.023      0.000      0.000      0.000      0.000      0.014      0.000
          OF    273.000    -11.955      0.000      9.023      0.000      0.000      0.000      0.000      0.014      0.000
          OF    274.000    -11.942      0.000      9.023      0.000      0.000      0.000      0.000      0.013      0.000
          OF    275.000    -11.929      0.000      9.023      0.000      0.000      0.000      0.000      0.013      0.000
          OF    276.000    -11.916      0.000      9.023      0.000      0.000      0.000      0.000      0.013      0.000
          OF    277.000    -11.903      0.000      9.023      0.000      0.000      0.000      0.000      0.013      0.000
          OF    278.000    -11.891      0.000      9.023      0.000      0.000      0.000      0.000      0.013      0.000
          OF    279.000    -11.878      0.000      9.023      0.000      0.000      0.000      0.000      0.013      0.000
          OF    280.000    -11.865      0.000      9.023      0.000      0.000      0.000      0.000      0.013      0.000
          OF    281.000    -11.852      0.000      9.023      0.000      0.000      0.000      0.000      0.013      0.000
          OF    282.000    -11.839      0.000      9.023      0.000      0.000      0.000      0.000      0.013      0.000
          OF    283.000    -11.827      0.000      9.023      0.000      0.000      0.000      0.000      0.013      0.000
          OF    284.000    -11.814      0.000      9.023      0.000      0.000      0.000      0.000      0.013      0.000
          OF    285.000    -11.801      0.000      9.023      0.000      0.000      0.000      0.000      0.013      0.000
          OF    286.000    -11.788      0.000      9.023      0.000      0.000      0.000      0.000      0.013      0.000
          OF    287.000    -11.775      0.000      9.023      0.000      0.000      0.000      0.000      0.013      0.000
          OF    288.000    -11.762      0.000      9.023      0.000      0.000      0.000      0.000      0.013      0.000
          OF    289.000    -11.750      0.000      9.023      0.000      0.000      0.000      0.000      0.013      0.000
          OF    290.000    -11.737      0.000      9.023      0.000      0.000      0.000      0.000      0.013      0.000
          OF    291.000    -11.724      0.000      9.023      0.000      0.000      0.000      0.000      0.013      0.000
          OF    292.000    -11.711      0.000      9.023      0.000      0.000      0.000      0.000      0.013      0.000
          OF    293.000    -11.698      0.000      9.023      0.000      0.000      0.000      0.000      0.013      0.000
          OF    294.000    -11.685      0.000      9.023      0.000      0.000      0.000      0.000      0.013      0.000
          OF    295.000    -11.673      0.000      9.023      0.000      0.000      0.000      0.000      0.013      0.000
          OF    296.000    -11.660      0.000      9.023      0.000      0.000      0.000      0.000      0.013      0.000
          OF    297.000    -11.647      0.000      9.023      0.000      0.000      0.000      0.000      0.013      0.000
          OF    298.000    -11.634      0.000      9.023      0.000      0.000      0.000      0.000      0.013      0.000
          OF    299.000    -11.621      0.000      9.023      0.000      0.000      0.000      0.000      0.013      0.000
          OF    300.000    -11.608      0.000      9.023      0.000      0.000      0.000      0.000      0.013      0.000
          OF    301.000    -11.596      0.000      9.023      0.000      0.000      0.000      0.000      0.013      0.000
          OF    302.000    -11.583      0.000      9.023      0.000      0.000      0.000      0.000      0.013      0.000
          OF    303.000    -11.570      0.000      9.023      0.000      0.000      0.000      0.000      0.013      0.000
          OF    304.000    -11.557      0.000      9.023      0.000      0.000      0.000      0.000      0.013      0.000
          OF    305.000    -11.544      0.000      9.023      0.000      0.000      0.000      0.000      0.013      0.000
          OF    306.000    -11.531      0.000      9.023      0.000      0.000      0.000      0.000      0.013      0.000
          OF    307.000    -11.519      0.000      9.023      0.000      0.000      0.000      0.000      0.013      0.000
          OF    308.000    -11.506      0.000      9.023      0.000      0.000      0.000      0.000      0.013      0.000
          OF    309.000    -11.493      0.000      9.023      0.000      0.000      0.000      0.000      0.013      0.000
          OF    310.000    -11.480      0.000      9.023      0.000      0.000      0.000      0.000      0.013      0.000
          OF    311.000    -11.467      0.000      9.023      0.000      0.000      0.000      0.000      0.013      0.000
          OF    312.000    -11.454      0.000      9.023      0.000      0.000      0.000      0.000      0.013      0.000
          OF    313.000    -11.442      0.000      9.023      0.000      0.000      0.000      0.000      0.013      0.000
          OF    314.000    -11.429      0.000      9.023      0.000      0.000      0.000      0.000      0.013      0.000
          OF    315.000    -11.416      0.000      9.023      0.000      0.000      0.000      0.000      0.013      0.000
          OF    316.000    -11.403      0.000      9.023      0.000      0.000      0.000      0.000      0.013      0.000
          OF    317.000    -11.390      0.000      9.023      0.000      0.000      0.000      0.000      0.013      0.000
          OF    318.000    -11.378      0.000      9.023      0.000      0.000      0.000      0.000      0.013      0.000
          OF    319.000    -11.365      0.000      9.023      0.000      0.000      0.000      0.000      0.013      0.000
          OF    320.000    -11.352      0.000      9.023      0.000      0.000      0.000      0.000      0.013      0.000
          OF    321.000    -11.339      0.000      9.023      0.000      0.000      0.000      0.000      0.013      0.000
          OF    322.000    -11.326      0.000      9.023      0.000      0.000      0.000      0.000      0.013      0.000
          OF    323.000    -11.313      0.000      9.023      0.000      0.000      0.000      0.000      0.013      0.000
          OF    324.000    -11.300      0.000      9.023      0.000      0.000      0.000      0.000      0.013      0.000
          OF    325.000    -11.288      0.000      9.023      0.000      0.000      0.000      0.000      0.013      0.000
          OF    326.000    -11.275      0.000      9.023      0.000      0.000      0.000      0.000      0.013      0.000
          OF    327.000    -11.262      0.000      9.023      0.000      0.000      0.000      0.000      0.013      0.000
          OF    328.000    -11.249      0.000      9.023      0.000      0.000      0.000      0.000      0.013      0.000
          OF    329.000    -11.236      0.000      9.023      0.000      0.000      0.000      0.000      0.013      0.000
          OF    330.000    -11.224      0.000      9.023      0.000      0.000      0.000      0.000      0.013      0.000
          OF    331.000    -11.211      0.000      9.023      0.000      0.000      0.000      0.000      0.013      0.000
          OF    332.000    -11.198      0.000      9.023      0.000      0.000      0.000      0.000      0.013      0.000
          OF    333.000    -11.185      0.000      9.023      0.000      0.000      0.000      0.000      0.013      0.000
          OF    334.000    -11.172      0.000      9.023      0.000      0.000      0.000      0.000      0.013      0.000
          OF    335.000    -11.159      0.000      9.023      0.000      0.000      0.000      0.000      0.023      0.000
          OF    336.000    -11.125      0.000      9.023      0.000      0.000      0.000      0.000      0.051      0.000
          OF    337.000    -11.057      0.000      9.023      0.000      0.000      0.000      0.000      0.068      0.000
          OF    338.000    -10.989      0.000      9.023      0.000      0.000      0.000      0.000      0.068      0.000
          OF    339.000    -10.921      0.000      9.023      0.000      0.000      0.000      0.000      0.068      0.000
          OF    340.000    -10.852      0.000      9.023      0.000      0.000      0.000      0.000      0.068      0.000
          OF    341.000    -10.784      0.000      9.023      0.000      0.000      0.000      0.000      0.068      0.000
          OF    342.000    -10.716      0.000      9.023      0.000      0.000      0.000      0.000      0.068      0.000
          OF    343.000    -10.648      0.000      9.023      0.000      0.000      0.000      0.000      0.068      0.000
          OF    344.000    -10.579      0.000      9.023      0.000      0.000      0.000      0.000      0.068      0.000
          OF    345.000    -10.511      0.000      9.023      0.000      0.000      0.000      0.000      0.068      0.000
          OF    346.000    -10.443      0.000      9.023      0.000      0.000      0.000      0.000      0.068      0.000
          OF    347.000    -10.375      0.000      9.023      0.000      0.000      0.000      0.000      0.068      0.000
          OF    348.000    -10.307      0.000      9.023      0.000      0.000      0.000      0.000      0.068      0.000
          OF    349.000    -10.238      0.000      9.023      0.000      0.000      0.000      0.000      0.068      0.000
          OF    350.000    -10.170      0.000      9.023      0.000      0.000      0.000      0.000      0.068      0.000
          OF    351.000    -10.102      0.000      9.023      0.000      0.000      0.000      0.000      0.068      0.000
          OF    352.000    -10.033      0.000      9.023      0.000      0.000      0.000      0.000      0.068      0.000
          OF    353.000     -9.966      0.000      9.023      0.000      0.000      0.000      0.000      0.068      0.000
          OF    354.000     -9.898      0.000      9.023      0.000      0.000      0.000      0.000      0.068      0.000
          OF    355.000     -9.829      0.000      9.023      0.000      0.000      0.000      0.000      0.068      0.000
          OF    356.000     -9.761      0.000      9.023      0.000      0.000      0.000      0.000      0.068      0.000
          OF    357.000     -9.693      0.000      9.023      0.000      0.000      0.000      0.000      0.068      0.000
          OF    358.000     -9.625      0.000      9.023      0.000      0.000      0.000      0.000      0.068      0.000
          OF    359.000     -9.556      0.000      9.023      0.000      0.000      0.000      0.000      0.068      0.000
          OF    360.000     -9.488      0.000      9.023      0.000      0.000      0.000      0.000      0.068      0.000
          OF    361.000     -9.420      0.000      9.023      0.000      0.000      0.000      0.000      0.068      0.000
          OF    362.000     -9.352      0.000      9.023      0.000      0.000      0.000      0.000      0.068      0.000
          OF    363.000     -9.283      0.000      9.023      0.000      0.000      0.000      0.000      0.068      0.000
          OF    364.000     -9.215      0.000      9.023      0.000      0.000      0.000      0.000      0.068      0.000
          OF    365.000     -9.147      0.000      9.023      0.000      0.000      0.000      0.000      0.068      0.000
          OF    366.000     -9.079      0.000      9.023      0.000      0.000      0.000      0.000      0.068      0.000
          OF    367.000     -9.010      0.000      9.023      0.000      0.000      0.000      0.000      0.068      0.000
          OF    368.000     -8.942      0.000      9.023      0.000      0.000      0.000      0.000      0.068      0.000
          OF    369.000     -8.874      0.000      9.023      0.000      0.000      0.000      0.000      0.068      0.000
          OF    370.000     -8.806      0.000      9.023      0.000      0.000      0.000      0.000      0.068      0.000
          OF    371.000     -8.737      0.000      9.023      0.000      0.000      0.000      0.000      0.068      0.000
          OF    372.000     -8.669      0.000      9.023      0.000      0.000      0.000      0.000      0.068      0.000
          OF    373.000     -8.601      0.000      9.023      0.000      0.000      0.000      0.000      0.068      0.000
          OF    374.000     -8.533      0.000      9.023      0.000      0.000      0.000      0.000      0.068      0.000
          OF    375.000     -8.464      0.000      9.023      0.000      0.000      0.000      0.000      0.068      0.000
          OF    376.000     -8.396      0.000      9.023      0.000      0.000      0.000      0.000      0.068      0.000
          OF    377.000     -8.328      0.000      9.023      0.000      0.000      0.000      0.000      0.068      0.000
          OF    378.000     -8.260      0.000      9.023      0.000      0.000      0.000      0.000      0.068      0.000
          OF    379.000     -8.191      0.000      9.023      0.000      0.000      0.000      0.000      0.068      0.000
          OF    380.000     -8.123      0.000      9.023      0.000      0.000      0.000      0.000      0.069      0.000
          OF    381.000     -8.054      0.000      9.023      0.000      0.000      0.000      0.000      0.070      0.000
          OF    382.000     -7.983      0.000      9.023      0.000      0.000      0.000      0.000      0.071      0.000
          OF    383.000     -7.912      0.000      9.023      0.000      0.000      0.000      0.000      0.071      0.000
          OF    385.000     -7.770      0.000      9.023      0.000      0.000      0.000      0.000      0.071      0.000
          OF    386.000     -7.699      0.000      9.023      0.000      0.000      0.000      0.000      0.071      0.000
          OF    388.000     -7.557      0.000      9.023      0.000      0.000      0.000      0.000      0.071      0.000
          OF    389.000     -7.486      0.000      9.023      0.000      0.000      0.000      0.000      0.071      0.000
          OF    391.000     -7.344      0.000      9.023      0.000      0.000      0.000      0.000      0.071      0.000
          OF    392.000     -7.273      0.000      9.023      0.000      0.000      0.000      0.000      0.071      0.000
          OF    394.000     -7.131      0.000      9.023      0.000      0.000      0.000      0.000      0.071      0.000
          OF    395.000     -7.060      0.000      9.023      0.000      0.000      0.000      0.000      0.071      0.000
          OF    397.000     -6.918      0.000      9.023      0.000      0.000      0.000      0.000      0.071      0.000
          OF    398.000     -6.847      0.000      9.023      0.000      0.000      0.000      0.000      0.071      0.000
          OF    400.000     -6.705      0.000      9.023      0.000      0.000      0.000      0.000      0.071      0.000
          OF    401.000     -6.634      0.000      9.023      0.000      0.000      0.000      0.000      0.071      0.000
          OF    403.000     -6.492      0.000      9.023      0.000      0.000      0.000      0.000      0.071      0.000
          OF    404.000     -6.421      0.000      9.023      0.000      0.000      0.000      0.000      0.071      0.000
          OF    406.000     -6.279      0.000      9.023      0.000      0.000      0.000      0.000      0.071      0.000
          OF    407.000     -6.208      0.000      9.023      0.000      0.000      0.000      0.000      0.071      0.000
          OF    409.000     -6.066      0.000      9.023      0.000      0.000      0.000      0.000      0.071      0.000
          OF    410.000     -5.995      0.000      9.023      0.000      0.000      0.000      0.000      0.071      0.000
          OF    412.000     -5.853      0.000      9.023      0.000      0.000      0.000      0.000      0.071      0.000
          OF    413.000     -5.784      0.000      9.023      0.000      0.000      0.000      0.000      0.069      0.000
          OF    415.000     -5.646      0.000      9.023      0.000      0.000      0.000      0.000      0.069      0.000
          OF    416.000     -5.576      0.000      9.023      0.000      0.000      0.000      0.000      0.069      0.000
          OF    418.000     -5.439      0.000      9.023      0.000      0.000      0.000      0.000      0.069      0.000
          OF    419.000     -5.370      0.000      9.023      0.000      0.000      0.000      0.000      0.069      0.000
          OF    421.000     -5.232      0.000      9.023      0.000      0.000      0.000      0.000      0.069      0.000
          OF    422.000     -5.163      0.000      9.023      0.000      0.000      0.000      0.000      0.069      0.000
          OF    427.000     -4.818      0.000      9.023      0.000      0.000      0.000      0.000      0.069      0.000
          OF    428.000     -4.749      0.000      9.023      0.000      0.000      0.000      0.000      0.069      0.000
          OF    433.000     -4.404      0.000      9.023      0.000      0.000      0.000      0.000      0.069      0.000
          OF    434.000     -4.335      0.000      9.023      0.000      0.000      0.000      0.000      0.069      0.000
          OF    439.000     -3.991      0.000      9.023      0.000      0.000      0.000      0.000      0.069      0.000
          OF    440.000     -3.922      0.000      9.023      0.000      0.000      0.000      0.000      0.069      0.000
          OF    446.000     -3.508      0.000      9.023      0.000      0.000      0.000      0.000      0.069      0.000
          OF    449.000     -3.301      0.000      9.023      0.000      0.000      0.000      0.000      0.070      0.000
          IF    537.000      2.870      0.000      9.022      0.000      0.000      0.000      0.000      0.070      0.000
          IF    538.000      2.940      0.000      9.022      0.000      0.000      0.000      0.000      0.024      0.000
          IF    564.300      3.533      0.000      9.023      0.000      0.000      0.000      0.000      0.023      0.000
          IF    567.600      3.607      0.000      9.026      0.000      0.000      0.000      0.000      0.022      0.000
          IF    570.900      3.681      0.000      9.029      0.000      0.000      0.000      0.000      0.023      0.000
          IF    574.100      3.755      0.000      9.033      0.000      0.000      0.000      0.000      0.023      0.000
          IF    577.400      3.829      0.000      9.035      0.000      0.000      0.000      0.000      0.022      0.000
          IF    580.700      3.902      0.000      9.038      0.000      0.000      0.000      0.000      0.022      0.000
          IF    584.000      3.976      0.000      9.042      0.000      0.000      0.000      0.000      0.022      0.000
          IF    587.300      4.050      0.000      9.045      0.000      0.000      0.000      0.000      0.023      0.000
          IF    590.500      4.124      0.000      9.048      0.000      0.000      0.000      0.000      0.023      0.000
          IF    593.800      4.198      0.000      9.051      0.000      0.000      0.000      0.000      0.022      0.000
          IF    597.100      4.272      0.000      9.054      0.000      0.000      0.000      0.000      0.022      0.000
          IF    600.400      4.346      0.000      9.057      0.000      0.000      0.000      0.000      0.022      0.000
          IF    603.700      4.420      0.000      9.060      0.000      0.000      0.000      0.000      0.022      0.000
          IF    607.000      4.494      0.000      9.064      0.000      0.000      0.000      0.000      0.023      0.000
          IF    610.200      4.568      0.000      9.067      0.000      0.000      0.000      0.000      0.023      0.000
          IF    613.500      4.641      0.000      9.070      0.000      0.000      0.000      0.000      0.022      0.000
          IF    616.800      4.715      0.000      9.073      0.000      0.000      0.000      0.000      0.022      0.000
          IF    620.100      4.789      0.000      9.076      0.000      0.000      0.000      0.000      0.022      0.000
          IF    623.400      4.863      0.000      9.080      0.000      0.000      0.000      0.000      0.023      0.000
          IF    626.600      4.937      0.000      9.083      0.000      0.000      0.000      0.000      0.023      0.000
          IF    629.900      5.011      0.000      9.086      0.000      0.000      0.000      0.000      0.022      0.000
          IF    633.200      5.085      0.000      9.089      0.000      0.000      0.000      0.000      0.022      0.000
          IF    636.500      5.159      0.000      9.092      0.000      0.000      0.000      0.000      0.022      0.000
          IF    639.800      5.233      0.000      9.095      0.000      0.000      0.000      0.000      0.023      0.000
          IF    643.000      5.307      0.000      9.098      0.000      0.000      0.000      0.000      0.023      0.000
          IF    646.300      5.381      0.000      9.102      0.000      0.000      0.000      0.000      0.022      0.000
          IF    649.600      5.455      0.000      9.105      0.000      0.000      0.000      0.000      0.022      0.000
          IF    652.900      5.528      0.000      9.108      0.000      0.000      0.000      0.000      0.022      0.000
          IF    656.200      5.602      0.000      9.111      0.000      0.000      0.000      0.000      0.023      0.000
          IF    659.400      5.676      0.000      9.115      0.000      0.000      0.000      0.000      0.023      0.000
          IF    662.700      5.750      0.000      9.118      0.000      0.000      0.000      0.000      0.022      0.000
          IF    666.000      5.824      0.000      9.121      0.000      0.000      0.000      0.000      0.022      0.000
          IF    669.300      5.898      0.000      9.124      0.000      0.000      0.000      0.000      0.022      0.000
          IF    672.600      5.972      0.000      9.128      0.000      0.000      0.000      0.000      0.022      0.000
          IF    675.900      6.046      0.000      9.131      0.000      0.000      0.000      0.000      0.023      0.000
          IF    679.100      6.120      0.000      9.134      0.000      0.000      0.000      0.000      0.023      0.000
          IF    682.400      6.194      0.000      9.138      0.000      0.000      0.000      0.000      0.022      0.000
          IF    685.700      6.267      0.000      9.141      0.000      0.000      0.000      0.000      0.022      0.000
          IF    689.000      6.341      0.000      9.145      0.000      0.000      0.000      0.000      0.022      0.000
          IF    692.300      6.415      0.000      9.149      0.000      0.000      0.000      0.000      0.023      0.000
          IF    695.500      6.489      0.000      9.153      0.000      0.000      0.000      0.000      0.023      0.000
          IF    698.800      6.563      0.000      9.158      0.000      0.000      0.000      0.000      0.022      0.000
          IF    702.100      6.637      0.000      9.161      0.000      0.000      0.000      0.000      0.022      0.000
          IF    705.400      6.711      0.000      9.165      0.000      0.000      0.000      0.000      0.022      0.000
          IF    708.700      6.785      0.000      9.169      0.000      0.000      0.000      0.000      0.023      0.000
          IF    711.900      6.859      0.000      9.172      0.000      0.000      0.000      0.000      0.023      0.000
          IF    715.200      6.933      0.000      9.176      0.000      0.000      0.000      0.000      0.022      0.000
          IF    718.500      7.006      0.000      9.179      0.000      0.000      0.000      0.000      0.022      0.000
          IF    721.800      7.080      0.000      9.182      0.000      0.000      0.000      0.000      0.022      0.000
          IF    725.100      7.154      0.000      9.185      0.000      0.000      0.000      0.000      0.023      0.000
          IF    728.300      7.228      0.000      9.188      0.000      0.000      0.000      0.000      0.023      0.000
          IF    731.600      7.302      0.000      9.191      0.000      0.000      0.000      0.000      0.112      0.000
          IF    734.900      7.966      0.000      9.196      0.000      0.000      0.000      0.000      0.371      0.000
          IF    736.700      9.196      0.000      9.196      0.000      0.000      0.000      0.000      0.684      0.000
          ET      0.000      0.000      0.000      0.000      0.000      0.000      0.000      0.000      0.000      0.000
1


            END        END      FETCH SURGE ELEV SURGE ELEV    INITIAL    INITIAL                BOTTOM    AVERAGE
        STATION  ELEVATION     LENGTH    10-YEAR   100-YEAR WAVE HEIGHT  W. PERIOD                SLOPE    A-ZONES
  IE      0.000    -18.610      1.000      1.000      9.023      5.627      5.021     56.140      0.034      0.000


            END        END  NEW SURGE  NEW SURGE                                                 BOTTOM    AVERAGE
        STATION  ELEVATION    10-YEAR   100-YEAR                                                  SLOPE    A-ZONES
  OF      1.000    -18.576      0.000      9.023      0.000      0.000      0.000      0.000      0.034      0.000


            END        END  NEW SURGE  NEW SURGE                                                 BOTTOM    AVERAGE
        STATION  ELEVATION    10-YEAR   100-YEAR                                                  SLOPE    A-ZONES
  OF      2.000    -18.542      0.000      9.023      0.000      0.000      0.000      0.000      0.034      0.000


            END        END  NEW SURGE  NEW SURGE                                                 BOTTOM    AVERAGE
        STATION  ELEVATION    10-YEAR   100-YEAR                                                  SLOPE    A-ZONES
  OF      3.000    -18.508      0.000      9.023      0.000      0.000      0.000      0.000      0.034      0.000


            END        END  NEW SURGE  NEW SURGE                                                 BOTTOM    AVERAGE
        STATION  ELEVATION    10-YEAR   100-YEAR                                                  SLOPE    A-ZONES
  OF      4.000    -18.474      0.000      9.023      0.000      0.000      0.000      0.000      0.034      0.000


            END        END  NEW SURGE  NEW SURGE                                                 BOTTOM    AVERAGE
        STATION  ELEVATION    10-YEAR   100-YEAR                                                  SLOPE    A-ZONES
  OF      5.000    -18.441      0.000      9.023      0.000      0.000      0.000      0.000      0.034      0.000


            END        END  NEW SURGE  NEW SURGE                                                 BOTTOM    AVERAGE
        STATION  ELEVATION    10-YEAR   100-YEAR                                                  SLOPE    A-ZONES
  OF      6.000    -18.407      0.000      9.023      0.000      0.000      0.000      0.000      0.034      0.000


            END        END  NEW SURGE  NEW SURGE                                                 BOTTOM    AVERAGE
        STATION  ELEVATION    10-YEAR   100-YEAR                                                  SLOPE    A-ZONES
  OF      7.000    -18.373      0.000      9.023      0.000      0.000      0.000      0.000      0.034      0.000


            END        END  NEW SURGE  NEW SURGE                                                 BOTTOM    AVERAGE
        STATION  ELEVATION    10-YEAR   100-YEAR                                                  SLOPE    A-ZONES
  OF      8.000    -18.339      0.000      9.023      0.000      0.000      0.000      0.000      0.034      0.000


            END        END  NEW SURGE  NEW SURGE                                                 BOTTOM    AVERAGE
        STATION  ELEVATION    10-YEAR   100-YEAR                                                  SLOPE    A-ZONES
  OF      9.000    -18.305      0.000      9.023      0.000      0.000      0.000      0.000      0.034      0.000


            END        END  NEW SURGE  NEW SURGE                                                 BOTTOM    AVERAGE
        STATION  ELEVATION    10-YEAR   100-YEAR                                                  SLOPE    A-ZONES
  OF     10.000    -18.271      0.000      9.023      0.000      0.000      0.000      0.000      0.034      0.000


            END        END  NEW SURGE  NEW SURGE                                                 BOTTOM    AVERAGE
        STATION  ELEVATION    10-YEAR   100-YEAR                                                  SLOPE    A-ZONES
  OF     11.000    -18.237      0.000      9.023      0.000      0.000      0.000      0.000      0.034      0.000


            END        END  NEW SURGE  NEW SURGE                                                 BOTTOM    AVERAGE
        STATION  ELEVATION    10-YEAR   100-YEAR                                                  SLOPE    A-ZONES
  OF     12.000    -18.203      0.000      9.023      0.000      0.000      0.000      0.000      0.034      0.000


            END        END  NEW SURGE  NEW SURGE                                                 BOTTOM    AVERAGE
        STATION  ELEVATION    10-YEAR   100-YEAR                                                  SLOPE    A-ZONES
  OF     13.000    -18.169      0.000      9.023      0.000      0.000      0.000      0.000      0.034      0.000


            END        END  NEW SURGE  NEW SURGE                                                 BOTTOM    AVERAGE
        STATION  ELEVATION    10-YEAR   100-YEAR                                                  SLOPE    A-ZONES
  OF     14.000    -18.135      0.000      9.023      0.000      0.000      0.000      0.000      0.034      0.000


            END        END  NEW SURGE  NEW SURGE                                                 BOTTOM    AVERAGE
        STATION  ELEVATION    10-YEAR   100-YEAR                                                  SLOPE    A-ZONES
  OF     15.000    -18.101      0.000      9.023      0.000      0.000      0.000      0.000      0.034      0.000


            END        END  NEW SURGE  NEW SURGE                                                 BOTTOM    AVERAGE
        STATION  ELEVATION    10-YEAR   100-YEAR                                                  SLOPE    A-ZONES
  OF     16.000    -18.068      0.000      9.023      0.000      0.000      0.000      0.000      0.034      0.000


            END        END  NEW SURGE  NEW SURGE                                                 BOTTOM    AVERAGE
        STATION  ELEVATION    10-YEAR   100-YEAR                                                  SLOPE    A-ZONES
  OF     17.000    -18.034      0.000      9.023      0.000      0.000      0.000      0.000      0.034      0.000


            END        END  NEW SURGE  NEW SURGE                                                 BOTTOM    AVERAGE
        STATION  ELEVATION    10-YEAR   100-YEAR                                                  SLOPE    A-ZONES
  OF     18.000    -18.000      0.000      9.023      0.000      0.000      0.000      0.000      0.034      0.000


            END        END  NEW SURGE  NEW SURGE                                                 BOTTOM    AVERAGE
        STATION  ELEVATION    10-YEAR   100-YEAR                                                  SLOPE    A-ZONES
  OF     19.000    -17.966      0.000      9.023      0.000      0.000      0.000      0.000      0.034      0.000


            END        END  NEW SURGE  NEW SURGE                                                 BOTTOM    AVERAGE
        STATION  ELEVATION    10-YEAR   100-YEAR                                                  SLOPE    A-ZONES
  OF     20.000    -17.932      0.000      9.023      0.000      0.000      0.000      0.000      0.034      0.000


            END        END  NEW SURGE  NEW SURGE                                                 BOTTOM    AVERAGE
        STATION  ELEVATION    10-YEAR   100-YEAR                                                  SLOPE    A-ZONES
  OF     21.000    -17.898      0.000      9.023      0.000      0.000      0.000      0.000      0.034      0.000


            END        END  NEW SURGE  NEW SURGE                                                 BOTTOM    AVERAGE
        STATION  ELEVATION    10-YEAR   100-YEAR                                                  SLOPE    A-ZONES
  OF     22.000    -17.864      0.000      9.023      0.000      0.000      0.000      0.000      0.034      0.000


            END        END  NEW SURGE  NEW SURGE                                                 BOTTOM    AVERAGE
        STATION  ELEVATION    10-YEAR   100-YEAR                                                  SLOPE    A-ZONES
  OF     23.000    -17.830      0.000      9.023      0.000      0.000      0.000      0.000      0.034      0.000


            END        END  NEW SURGE  NEW SURGE                                                 BOTTOM    AVERAGE
        STATION  ELEVATION    10-YEAR   100-YEAR                                                  SLOPE    A-ZONES
  OF     24.000    -17.796      0.000      9.023      0.000      0.000      0.000      0.000      0.034      0.000


            END        END  NEW SURGE  NEW SURGE                                                 BOTTOM    AVERAGE
        STATION  ELEVATION    10-YEAR   100-YEAR                                                  SLOPE    A-ZONES
  OF     25.000    -17.762      0.000      9.023      0.000      0.000      0.000      0.000      0.034      0.000


            END        END  NEW SURGE  NEW SURGE                                                 BOTTOM    AVERAGE
        STATION  ELEVATION    10-YEAR   100-YEAR                                                  SLOPE    A-ZONES
  OF     26.000    -17.728      0.000      9.023      0.000      0.000      0.000      0.000      0.034      0.000


            END        END  NEW SURGE  NEW SURGE                                                 BOTTOM    AVERAGE
        STATION  ELEVATION    10-YEAR   100-YEAR                                                  SLOPE    A-ZONES
  OF     27.000    -17.694      0.000      9.023      0.000      0.000      0.000      0.000      0.034      0.000


            END        END  NEW SURGE  NEW SURGE                                                 BOTTOM    AVERAGE
        STATION  ELEVATION    10-YEAR   100-YEAR                                                  SLOPE    A-ZONES
  OF     28.000    -17.661      0.000      9.023      0.000      0.000      0.000      0.000      0.034      0.000


            END        END  NEW SURGE  NEW SURGE                                                 BOTTOM    AVERAGE
        STATION  ELEVATION    10-YEAR   100-YEAR                                                  SLOPE    A-ZONES
  OF     29.000    -17.627      0.000      9.023      0.000      0.000      0.000      0.000      0.034      0.000


            END        END  NEW SURGE  NEW SURGE                                                 BOTTOM    AVERAGE
        STATION  ELEVATION    10-YEAR   100-YEAR                                                  SLOPE    A-ZONES
  OF     30.000    -17.593      0.000      9.023      0.000      0.000      0.000      0.000      0.034      0.000


            END        END  NEW SURGE  NEW SURGE                                                 BOTTOM    AVERAGE
        STATION  ELEVATION    10-YEAR   100-YEAR                                                  SLOPE    A-ZONES
  OF     31.000    -17.559      0.000      9.023      0.000      0.000      0.000      0.000      0.034      0.000


            END        END  NEW SURGE  NEW SURGE                                                 BOTTOM    AVERAGE
        STATION  ELEVATION    10-YEAR   100-YEAR                                                  SLOPE    A-ZONES
  OF     32.000    -17.525      0.000      9.023      0.000      0.000      0.000      0.000      0.034      0.000


            END        END  NEW SURGE  NEW SURGE                                                 BOTTOM    AVERAGE
        STATION  ELEVATION    10-YEAR   100-YEAR                                                  SLOPE    A-ZONES
  OF     33.000    -17.491      0.000      9.023      0.000      0.000      0.000      0.000      0.034      0.000


            END        END  NEW SURGE  NEW SURGE                                                 BOTTOM    AVERAGE
        STATION  ELEVATION    10-YEAR   100-YEAR                                                  SLOPE    A-ZONES
  OF     34.000    -17.457      0.000      9.023      0.000      0.000      0.000      0.000      0.034      0.000


            END        END  NEW SURGE  NEW SURGE                                                 BOTTOM    AVERAGE
        STATION  ELEVATION    10-YEAR   100-YEAR                                                  SLOPE    A-ZONES
  OF     35.000    -17.423      0.000      9.023      0.000      0.000      0.000      0.000      0.034      0.000


            END        END  NEW SURGE  NEW SURGE                                                 BOTTOM    AVERAGE
        STATION  ELEVATION    10-YEAR   100-YEAR                                                  SLOPE    A-ZONES
  OF     36.000    -17.389      0.000      9.023      0.000      0.000      0.000      0.000      0.034      0.000


            END        END  NEW SURGE  NEW SURGE                                                 BOTTOM    AVERAGE
        STATION  ELEVATION    10-YEAR   100-YEAR                                                  SLOPE    A-ZONES
  OF     37.000    -17.355      0.000      9.023      0.000      0.000      0.000      0.000      0.034      0.000


            END        END  NEW SURGE  NEW SURGE                                                 BOTTOM    AVERAGE
        STATION  ELEVATION    10-YEAR   100-YEAR                                                  SLOPE    A-ZONES
  OF     38.000    -17.321      0.000      9.023      0.000      0.000      0.000      0.000      0.034      0.000


            END        END  NEW SURGE  NEW SURGE                                                 BOTTOM    AVERAGE
        STATION  ELEVATION    10-YEAR   100-YEAR                                                  SLOPE    A-ZONES
  OF     39.000    -17.287      0.000      9.023      0.000      0.000      0.000      0.000      0.034      0.000


            END        END  NEW SURGE  NEW SURGE                                                 BOTTOM    AVERAGE
        STATION  ELEVATION    10-YEAR   100-YEAR                                                  SLOPE    A-ZONES
  OF     40.000    -17.254      0.000      9.023      0.000      0.000      0.000      0.000      0.034      0.000


            END        END  NEW SURGE  NEW SURGE                                                 BOTTOM    AVERAGE
        STATION  ELEVATION    10-YEAR   100-YEAR                                                  SLOPE    A-ZONES
  OF     41.000    -17.220      0.000      9.023      0.000      0.000      0.000      0.000      0.034      0.000


            END        END  NEW SURGE  NEW SURGE                                                 BOTTOM    AVERAGE
        STATION  ELEVATION    10-YEAR   100-YEAR                                                  SLOPE    A-ZONES
  OF     42.000    -17.186      0.000      9.023      0.000      0.000      0.000      0.000      0.034      0.000


            END        END  NEW SURGE  NEW SURGE                                                 BOTTOM    AVERAGE
        STATION  ELEVATION    10-YEAR   100-YEAR                                                  SLOPE    A-ZONES
  OF     43.000    -17.152      0.000      9.023      0.000      0.000      0.000      0.000      0.034      0.000


            END        END  NEW SURGE  NEW SURGE                                                 BOTTOM    AVERAGE
        STATION  ELEVATION    10-YEAR   100-YEAR                                                  SLOPE    A-ZONES
  OF     44.000    -17.118      0.000      9.023      0.000      0.000      0.000      0.000      0.034      0.000


            END        END  NEW SURGE  NEW SURGE                                                 BOTTOM    AVERAGE
        STATION  ELEVATION    10-YEAR   100-YEAR                                                  SLOPE    A-ZONES
  OF     45.000    -17.084      0.000      9.023      0.000      0.000      0.000      0.000      0.034      0.000


            END        END  NEW SURGE  NEW SURGE                                                 BOTTOM    AVERAGE
        STATION  ELEVATION    10-YEAR   100-YEAR                                                  SLOPE    A-ZONES
  OF     46.000    -17.050      0.000      9.023      0.000      0.000      0.000      0.000      0.034      0.000


            END        END  NEW SURGE  NEW SURGE                                                 BOTTOM    AVERAGE
        STATION  ELEVATION    10-YEAR   100-YEAR                                                  SLOPE    A-ZONES
  OF     47.000    -17.016      0.000      9.023      0.000      0.000      0.000      0.000      0.034      0.000


            END        END  NEW SURGE  NEW SURGE                                                 BOTTOM    AVERAGE
        STATION  ELEVATION    10-YEAR   100-YEAR                                                  SLOPE    A-ZONES
  OF     48.000    -16.982      0.000      9.023      0.000      0.000      0.000      0.000      0.034      0.000


            END        END  NEW SURGE  NEW SURGE                                                 BOTTOM    AVERAGE
        STATION  ELEVATION    10-YEAR   100-YEAR                                                  SLOPE    A-ZONES
  OF     49.000    -16.948      0.000      9.023      0.000      0.000      0.000      0.000      0.034      0.000


            END        END  NEW SURGE  NEW SURGE                                                 BOTTOM    AVERAGE
        STATION  ELEVATION    10-YEAR   100-YEAR                                                  SLOPE    A-ZONES
  OF     50.000    -16.914      0.000      9.023      0.000      0.000      0.000      0.000      0.034      0.000


            END        END  NEW SURGE  NEW SURGE                                                 BOTTOM    AVERAGE
        STATION  ELEVATION    10-YEAR   100-YEAR                                                  SLOPE    A-ZONES
  OF     51.000    -16.881      0.000      9.023      0.000      0.000      0.000      0.000      0.034      0.000


            END        END  NEW SURGE  NEW SURGE                                                 BOTTOM    AVERAGE
        STATION  ELEVATION    10-YEAR   100-YEAR                                                  SLOPE    A-ZONES
  OF     52.000    -16.847      0.000      9.023      0.000      0.000      0.000      0.000      0.034      0.000


            END        END  NEW SURGE  NEW SURGE                                                 BOTTOM    AVERAGE
        STATION  ELEVATION    10-YEAR   100-YEAR                                                  SLOPE    A-ZONES
  OF     53.000    -16.813      0.000      9.023      0.000      0.000      0.000      0.000      0.034      0.000


            END        END  NEW SURGE  NEW SURGE                                                 BOTTOM    AVERAGE
        STATION  ELEVATION    10-YEAR   100-YEAR                                                  SLOPE    A-ZONES
  OF     54.000    -16.779      0.000      9.023      0.000      0.000      0.000      0.000      0.034      0.000


            END        END  NEW SURGE  NEW SURGE                                                 BOTTOM    AVERAGE
        STATION  ELEVATION    10-YEAR   100-YEAR                                                  SLOPE    A-ZONES
  OF     55.000    -16.745      0.000      9.023      0.000      0.000      0.000      0.000      0.034      0.000


            END        END  NEW SURGE  NEW SURGE                                                 BOTTOM    AVERAGE
        STATION  ELEVATION    10-YEAR   100-YEAR                                                  SLOPE    A-ZONES
  OF     56.000    -16.711      0.000      9.023      0.000      0.000      0.000      0.000      0.034      0.000


            END        END  NEW SURGE  NEW SURGE                                                 BOTTOM    AVERAGE
        STATION  ELEVATION    10-YEAR   100-YEAR                                                  SLOPE    A-ZONES
  OF     57.000    -16.677      0.000      9.023      0.000      0.000      0.000      0.000      0.034      0.000


            END        END  NEW SURGE  NEW SURGE                                                 BOTTOM    AVERAGE
        STATION  ELEVATION    10-YEAR   100-YEAR                                                  SLOPE    A-ZONES
  OF     58.000    -16.643      0.000      9.023      0.000      0.000      0.000      0.000      0.034      0.000


            END        END  NEW SURGE  NEW SURGE                                                 BOTTOM    AVERAGE
[...]

                                        IF     610.20         3.33         5.04        11.40

                                        IF     613.50         3.28         5.04        11.36

                                        IF     616.80         3.23         5.04        11.33

                                        IF     620.10         3.18         5.04        11.30

                                        IF     623.40         3.13         5.04        11.27

                                        IF     626.60         3.08         5.04        11.24

                                        IF     629.90         3.03         5.04        11.21

                                        IF     633.20         2.98         5.04        11.17

                                        IF     636.50         2.93         5.04        11.14

                                        IF     639.80         2.88         5.04        11.11

                                        IF     643.00         2.83         5.04        11.08

                                        IF     646.30         2.78         5.04        11.05

                                        IF     649.60         2.73         5.04        11.01

                                        IF     652.90         2.68         5.04        10.98

                                        IF     656.20         2.62         5.04        10.95

                                        IF     659.40         2.57         5.04        10.92

                                        IF     662.70         2.52         5.04        10.88

                                        IF     666.00         2.47         5.04        10.85

                                        IF     669.30         2.42         5.04        10.82

                                        IF     672.60         2.37         5.04        10.79

                                        IF     675.90         2.32         5.04        10.75

                                        IF     679.10         2.27         5.04        10.72

                                        IF     682.40         2.22         5.04        10.69

                                        IF     685.70         2.17         5.04        10.66

                                        IF     689.00         2.12         5.04        10.63

                                        IF     692.30         2.06         5.04        10.59

                                        IF     695.50         2.01         5.04        10.56

                                        IF     698.80         1.96         5.04        10.53

                                        IF     702.10         1.91         5.04        10.50

                                        IF     705.40         1.86         5.04        10.47

                                        IF     708.70         1.81         5.04        10.43

                                        IF     711.90         1.75         5.04        10.40

                                        IF     715.20         1.70         5.04        10.37

                                        IF     718.50         1.65         5.04        10.33

                                        IF     721.80         1.60         5.04        10.30

                                        IF     725.10         1.55         5.04        10.27

                                        IF     728.30         1.49         5.04        10.23

                                        IF     731.60         1.44         5.04        10.20

                                        IF     734.90         0.95         5.04         9.86

                                        IF     736.70         0.01         5.04         9.20



                                        PART3 LOCATION OF AREAS ABOVE 100-YEAR SURGE

                                        NO AREAS ABOVE 100-YEAR SURGE IN THIS TRANSECT



                                                  PART4 LOCATION OF SURGE CHANGES

                                        STATION          10-YEAR SURGE          100-YEAR SURGE

                                        537.00                 1.00                 9.02

                                        564.30                 1.00                 9.02

                                        567.60                 1.00                 9.03

                                        570.90                 1.00                 9.03

                                        574.10                 1.00                 9.03

                                        577.40                 1.00                 9.03

                                        580.70                 1.00                 9.04

                                        584.00                 1.00                 9.04

                                        587.30                 1.00                 9.05

                                        590.50                 1.00                 9.05

                                        593.80                 1.00                 9.05

                                        597.10                 1.00                 9.05

                                        600.40                 1.00                 9.06

                                        603.70                 1.00                 9.06

                                        607.00                 1.00                 9.06

                                        610.20                 1.00                 9.07

                                        613.50                 1.00                 9.07

                                        616.80                 1.00                 9.07

                                        620.10                 1.00                 9.08

                                        623.40                 1.00                 9.08

                                        626.60                 1.00                 9.08

                                        629.90                 1.00                 9.09

                                        633.20                 1.00                 9.09

                                        636.50                 1.00                 9.09

                                        639.80                 1.00                 9.10

                                        643.00                 1.00                 9.10

                                        646.30                 1.00                 9.10

                                        649.60                 1.00                 9.10

                                        652.90                 1.00                 9.11

                                        656.20                 1.00                 9.11

                                        659.40                 1.00                 9.11

                                        662.70                 1.00                 9.12

                                        666.00                 1.00                 9.12

                                        669.30                 1.00                 9.12

                                        672.60                 1.00                 9.13

                                        675.90                 1.00                 9.13

                                        679.10                 1.00                 9.13

                                        682.40                 1.00                 9.14

                                        685.70                 1.00                 9.14

                                        689.00                 1.00                 9.15

                                        692.30                 1.00                 9.15

                                        695.50                 1.00                 9.15

                                        698.80                 1.00                 9.16

                                        702.10                 1.00                 9.16

                                        705.40                 1.00                 9.16

                                        708.70                 1.00                 9.17

                                        711.90                 1.00                 9.17

                                        715.20                 1.00                 9.18

                                        718.50                 1.00                 9.18

                                        721.80                 1.00                 9.18

                                        725.10                 1.00                 9.19

                                        728.30                 1.00                 9.19

                                        731.60                 1.00                 9.19

                                        734.90                 1.00                 9.20



                                                       PART5  LOCATION OF V ZONES

                                             STATION OF GUTTER          LOCATION OF ZONE

                                                      631.74               WINDWARD



                                                   PART6 NUMBERED A ZONES AND V ZONES

                                        STATION OF GUTTER  ELEVATION  ZONE DESIGNATION   FHF


                                               0.00          12.96

                                                                          V22  EL=13     120

                                             449.00          13.19

                                                                          V22  EL=13     120

                                             506.93          12.50

                                                                          V22  EL=12     120

                                             537.00          12.14

                                                                          V22  EL=12     120

                                             538.00          12.11

                                                                          V22  EL=12     120

                                             564.30          11.83

                                                                          V22  EL=12     120

                                             567.60          11.80

                                                                          V22  EL=12     120

                                             570.90          11.77

                                                                          V22  EL=12     120

                                             574.10          11.74

                                                                          V22  EL=12     120

                                             577.40          11.71

                                                                          V22  EL=12     120

                                             580.70          11.68

                                                                          V22  EL=12     120

                                             584.00          11.65

                                                                          V22  EL=12     120

                                             587.30          11.62

                                                                          V22  EL=12     120

                                             590.50          11.58

                                                                          V22  EL=12     120

                                             593.80          11.55

                                                                          V22  EL=12     120

                                             597.10          11.52

                                                                          V22  EL=12     120

                                             599.26          11.50

                                                                          V22  EL=11     120

                                             600.40          11.49

                                                                          V22  EL=11     120

                                             603.70          11.46

                                                                          V22  EL=11     120

                                             607.00          11.43

                                                                          V23  EL=11     130

                                             610.20          11.40

                                                                          V23  EL=11     130

                                             613.50          11.36

                                                                          V23  EL=11     130

                                             616.80          11.33

                                                                          V23  EL=11     130

                                             620.10          11.30

                                                                          V23  EL=11     130

                                             623.40          11.27

                                                                          V23  EL=11     130

                                             626.60          11.24

                                                                          V23  EL=11     130

                                             629.90          11.21

                                                                          V23  EL=11     130

                                             631.74          11.19

                                                                          A19  EL=11      95

                                             633.20          11.17

                                                                          A19  EL=11      95

                                             636.50          11.14

                                                                          A19  EL=11      95

                                             639.80          11.11

                                                                          A19  EL=11      95

                                             643.00          11.08

                                                                          A19  EL=11      95

                                             646.30          11.05

                                                                          A19  EL=11      95

                                             649.60          11.01

                                                                          A19  EL=11      95

                                             652.90          10.98

                                                                          A19  EL=11      95

                                             656.20          10.95

                                                                          A19  EL=11      95

                                             659.40          10.92

                                                                          A19  EL=11      95

                                             662.70          10.88

                                                                          A19  EL=11      95

                                             666.00          10.85

                                                                          A19  EL=11      95

                                             669.30          10.82

                                                                          A19  EL=11      95

                                             672.60          10.79

                                                                          A19  EL=11      95

                                             675.90          10.75

                                                                          A19  EL=11      95

                                             679.10          10.72

                                                                          A19  EL=11      95

                                             682.40          10.69

                                                                          A19  EL=11      95

                                             685.70          10.66

                                                                          A19  EL=11      95

                                             689.00          10.63

                                                                          A19  EL=11      95

                                             692.30          10.59

                                                                          A19  EL=11      95

                                             695.50          10.56

                                                                          A19  EL=11      95

                                             698.80          10.53

                                                                          A19  EL=11      95

                                             701.91          10.50

                                                                          A19  EL=10      95

                                             702.10          10.50

                                                                          A19  EL=10      95

                                             705.40          10.47

                                                                          A19  EL=10      95

                                             708.70          10.43

                                                                          A19  EL=10      95

                                             711.90          10.40

                                                                          A19  EL=10      95

                                             715.20          10.37

                                                                          A19  EL=10      95

                                             718.50          10.33

                                                                          A19  EL=10      95

                                             721.80          10.30

                                                                          A19  EL=10      95

                                             725.10          10.27

                                                                          A19  EL=10      95

                                             728.30          10.23

                                                                          A19  EL=10      95

                                             731.60          10.20

                                                                          A19  EL=10      95

                                             734.90           9.86

                                                                          A19  EL=10      95

                                             735.88           9.50

                                                                          A19  EL= 9      95

                                             736.70           9.20



                                                  ZONE TERMINATED AT END OF TRANSECT



                                                  PART 7   POSTSCRIPT NOTES


                         PS#  1   START(420295.0524,4851501.5466)                                              
                         PS#  2   END(420688.3141,4851437.9232)                                                
