 WAVE HEIGHT COMPUTATIONS FOR FLOOD INSURANCE STUDIES (WHAFIS VERSION 4.0G, 08_2007)
 Executed on: Thu Feb 20 14:56:33 2020
 Input file:  C:\FEMA-TransectAnalysis\LOMR-TransectAnalysis-Harpswell\3_whafis\whafis4\CM-138.dat                                            
 Output file: C:\FEMA-TransectAnalysis\LOMR-TransectAnalysis-Harpswell\3_whafis\whafis4\test.out                                              



                                                              header                                                                
                                                     THIS IS A 100-YEAR CASE


                                       THE FOLLOWING NON-DEFAULT WIND SPEEDS ARE BEING USED
                                            WINDIF  56.14  WINDOF  56.14  WINDVH  60.00

                                                             PART1 INPUT

          IE      0.000    -43.324      1.000      1.000      8.797     15.855     11.769     56.140      0.156      0.000
          OF      2.000    -43.011      0.000      8.797      0.000      0.000      0.000      0.000      0.157      0.000
          OF      4.000    -42.697      0.000      8.797      0.000      0.000      0.000      0.000      0.157      0.000
          OF      6.000    -42.384      0.000      8.797      0.000      0.000      0.000      0.000      0.157      0.000
          OF      8.000    -42.070      0.000      8.797      0.000      0.000      0.000      0.000      0.157      0.000
          OF     10.000    -41.757      0.000      8.797      0.000      0.000      0.000      0.000      0.156      0.000
          OF     12.000    -41.444      0.000      8.797      0.000      0.000      0.000      0.000      0.157      0.000
          OF     14.000    -41.130      0.000      8.797      0.000      0.000      0.000      0.000      0.157      0.000
          OF     16.000    -40.817      0.000      8.797      0.000      0.000      0.000      0.000      0.157      0.000
          OF     18.000    -40.503      0.000      8.797      0.000      0.000      0.000      0.000      0.157      0.000
          OF     20.000    -40.190      0.000      8.797      0.000      0.000      0.000      0.000      0.157      0.000
          OF     22.000    -39.876      0.000      8.797      0.000      0.000      0.000      0.000      0.157      0.000
          OF     24.000    -39.563      0.000      8.797      0.000      0.000      0.000      0.000      0.156      0.000
          OF     26.000    -39.250      0.000      8.797      0.000      0.000      0.000      0.000      0.151      0.000
          OF     28.000    -38.960      0.000      8.797      0.000      0.000      0.000      0.000      0.142      0.000
          OF     30.000    -38.681      0.000      8.797      0.000      0.000      0.000      0.000      0.140      0.000
          OF     32.000    -38.402      0.000      8.797      0.000      0.000      0.000      0.000      0.140      0.000
          OF     34.000    -38.123      0.000      8.797      0.000      0.000      0.000      0.000      0.140      0.000
          OF     36.000    -37.844      0.000      8.797      0.000      0.000      0.000      0.000      0.139      0.000
          OF     38.000    -37.566      0.000      8.797      0.000      0.000      0.000      0.000      0.139      0.000
          OF     40.000    -37.287      0.000      8.797      0.000      0.000      0.000      0.000      0.140      0.000
          OF     42.000    -37.008      0.000      8.797      0.000      0.000      0.000      0.000      0.140      0.000
          OF     44.000    -36.729      0.000      8.797      0.000      0.000      0.000      0.000      0.140      0.000
          OF     46.000    -36.450      0.000      8.797      0.000      0.000      0.000      0.000      0.139      0.000
          OF     48.000    -36.172      0.000      8.797      0.000      0.000      0.000      0.000      0.139      0.000
          OF     50.000    -35.893      0.000      8.797      0.000      0.000      0.000      0.000      0.140      0.000
          OF     52.000    -35.614      0.000      8.797      0.000      0.000      0.000      0.000      0.140      0.000
          OF     54.000    -35.335      0.000      8.797      0.000      0.000      0.000      0.000      0.140      0.000
          OF     56.000    -35.056      0.000      8.797      0.000      0.000      0.000      0.000      0.156      0.000
          OF     58.000    -34.712      0.000      8.796      0.000      0.000      0.000      0.000      0.183      0.000
          OF     60.000    -34.324      0.000      8.796      0.000      0.000      0.000      0.000      0.194      0.000
          OF     62.000    -33.936      0.000      8.796      0.000      0.000      0.000      0.000      0.194      0.000
          OF     64.000    -33.548      0.000      8.796      0.000      0.000      0.000      0.000      0.194      0.000
          OF     66.000    -33.161      0.000      8.796      0.000      0.000      0.000      0.000      0.194      0.000
          OF     68.000    -32.773      0.000      8.796      0.000      0.000      0.000      0.000      0.194      0.000
          OF     70.000    -32.385      0.000      8.796      0.000      0.000      0.000      0.000      0.194      0.000
          OF     72.000    -31.997      0.000      8.796      0.000      0.000      0.000      0.000      0.194      0.000
          OF     74.000    -31.609      0.000      8.796      0.000      0.000      0.000      0.000      0.194      0.000
          OF     76.000    -31.221      0.000      8.796      0.000      0.000      0.000      0.000      0.194      0.000
          OF     78.000    -30.833      0.000      8.796      0.000      0.000      0.000      0.000      0.194      0.000
          OF     80.000    -30.445      0.000      8.796      0.000      0.000      0.000      0.000      0.194      0.000
          OF     82.000    -30.057      0.000      8.796      0.000      0.000      0.000      0.000      0.194      0.000
          OF     84.000    -29.669      0.000      8.796      0.000      0.000      0.000      0.000      0.194      0.000
          OF     86.000    -29.281      0.000      8.796      0.000      0.000      0.000      0.000      0.194      0.000
          OF     88.000    -28.893      0.000      8.796      0.000      0.000      0.000      0.000      0.194      0.000
          OF     90.000    -28.505      0.000      8.796      0.000      0.000      0.000      0.000      0.194      0.000
          OF     92.000    -28.118      0.000      8.796      0.000      0.000      0.000      0.000      0.194      0.000
          OF     94.000    -27.730      0.000      8.795      0.000      0.000      0.000      0.000      0.194      0.000
          OF     96.000    -27.342      0.000      8.795      0.000      0.000      0.000      0.000      0.194      0.000
          OF     98.000    -26.954      0.000      8.795      0.000      0.000      0.000      0.000      0.205      0.000
          OF    100.000    -26.521      0.000      8.795      0.000      0.000      0.000      0.000      0.221      0.000
          OF    102.000    -26.068      0.000      8.795      0.000      0.000      0.000      0.000      0.227      0.000
          OF    104.000    -25.615      0.000      8.795      0.000      0.000      0.000      0.000      0.227      0.000
          OF    106.000    -25.162      0.000      8.795      0.000      0.000      0.000      0.000      0.227      0.000
          OF    108.000    -24.709      0.000      8.795      0.000      0.000      0.000      0.000      0.227      0.000
          OF    110.000    -24.256      0.000      8.795      0.000      0.000      0.000      0.000      0.227      0.000
          OF    112.000    -23.803      0.000      8.795      0.000      0.000      0.000      0.000      0.227      0.000
          OF    114.000    -23.350      0.000      8.795      0.000      0.000      0.000      0.000      0.227      0.000
          OF    116.000    -22.897      0.000      8.795      0.000      0.000      0.000      0.000      0.227      0.000
          OF    118.000    -22.444      0.000      8.795      0.000      0.000      0.000      0.000      0.227      0.000
          OF    120.000    -21.991      0.000      8.795      0.000      0.000      0.000      0.000      0.227      0.000
          OF    122.000    -21.538      0.000      8.795      0.000      0.000      0.000      0.000      0.227      0.000
          OF    124.000    -21.085      0.000      8.795      0.000      0.000      0.000      0.000      0.226      0.000
          OF    126.000    -20.633      0.000      8.795      0.000      0.000      0.000      0.000      0.226      0.000
          OF    128.000    -20.180      0.000      8.795      0.000      0.000      0.000      0.000      0.227      0.000
          OF    130.000    -19.727      0.000      8.795      0.000      0.000      0.000      0.000      0.227      0.000
          OF    132.000    -19.274      0.000      8.795      0.000      0.000      0.000      0.000      0.207      0.000
          OF    134.000    -18.900      0.000      8.795      0.000      0.000      0.000      0.000      0.127      0.000
          OF    136.000    -18.766      0.000      8.795      0.000      0.000      0.000      0.000      0.067      0.000
          OF    138.000    -18.632      0.000      8.795      0.000      0.000      0.000      0.000      0.067      0.000
          OF    140.000    -18.498      0.000      8.795      0.000      0.000      0.000      0.000      0.067      0.000
          OF    142.000    -18.364      0.000      8.795      0.000      0.000      0.000      0.000      0.067      0.000
          OF    144.000    -18.230      0.000      8.795      0.000      0.000      0.000      0.000      0.067      0.000
          OF    146.000    -18.096      0.000      8.795      0.000      0.000      0.000      0.000      0.067      0.000
          OF    148.000    -17.962      0.000      8.795      0.000      0.000      0.000      0.000      0.067      0.000
          OF    150.000    -17.828      0.000      8.795      0.000      0.000      0.000      0.000      0.067      0.000
          OF    152.000    -17.694      0.000      8.795      0.000      0.000      0.000      0.000      0.067      0.000
          OF    154.000    -17.560      0.000      8.794      0.000      0.000      0.000      0.000      0.067      0.000
          OF    156.000    -17.426      0.000      8.794      0.000      0.000      0.000      0.000      0.067      0.000
          OF    158.000    -17.292      0.000      8.794      0.000      0.000      0.000      0.000      0.067      0.000
          OF    160.000    -17.158      0.000      8.794      0.000      0.000      0.000      0.000      0.067      0.000
          OF    162.000    -17.024      0.000      8.794      0.000      0.000      0.000      0.000      0.067      0.000
          OF    164.000    -16.890      0.000      8.794      0.000      0.000      0.000      0.000      0.067      0.000
          OF    166.000    -16.756      0.000      8.794      0.000      0.000      0.000      0.000      0.067      0.000
          OF    168.000    -16.622      0.000      8.794      0.000      0.000      0.000      0.000      0.067      0.000
          OF    170.000    -16.488      0.000      8.794      0.000      0.000      0.000      0.000      0.067      0.000
          OF    172.000    -16.354      0.000      8.794      0.000      0.000      0.000      0.000      0.072      0.000
          OF    174.000    -16.202      0.000      8.794      0.000      0.000      0.000      0.000      0.091      0.000
          OF    176.000    -15.990      0.000      8.794      0.000      0.000      0.000      0.000      0.106      0.000
          OF    178.000    -15.778      0.000      8.794      0.000      0.000      0.000      0.000      0.106      0.000
          OF    180.000    -15.566      0.000      8.794      0.000      0.000      0.000      0.000      0.106      0.000
          OF    182.000    -15.355      0.000      8.794      0.000      0.000      0.000      0.000      0.106      0.000
          OF    184.000    -15.143      0.000      8.794      0.000      0.000      0.000      0.000      0.106      0.000
          OF    186.000    -14.931      0.000      8.794      0.000      0.000      0.000      0.000      0.106      0.000
          OF    188.000    -14.719      0.000      8.794      0.000      0.000      0.000      0.000      0.106      0.000
          OF    190.000    -14.508      0.000      8.794      0.000      0.000      0.000      0.000      0.106      0.000
          OF    192.000    -14.296      0.000      8.794      0.000      0.000      0.000      0.000      0.106      0.000
          OF    194.000    -14.084      0.000      8.794      0.000      0.000      0.000      0.000      0.106      0.000
          OF    196.000    -13.872      0.000      8.794      0.000      0.000      0.000      0.000      2.255      0.000
          OF    198.000     -5.064      0.000      8.794      0.000      0.000      0.000      0.000      2.177      0.000
          OF    200.000     -5.164      0.000      8.794      0.000      0.000      0.000      0.000      0.022      0.000
          OF    202.000     -4.977      0.000      8.794      0.000      0.000      0.000      0.000      0.033      0.000
          OF    204.000     -5.031      0.000      8.794      0.000      0.000      0.000      0.000     -0.013      0.000
          OF    206.000     -5.029      0.000      8.794      0.000      0.000      0.000      0.000      0.008      0.000
          OF    208.000     -5.001      0.000      8.794      0.000      0.000      0.000      0.000      0.008      0.000
          OF    210.000     -4.998      0.000      8.794      0.000      0.000      0.000      0.000     -0.032      0.000
          OF    212.000     -5.128      0.000      8.794      0.000      0.000      0.000      0.000     -0.065      0.000
          OF    214.000     -5.259      0.000      8.794      0.000      0.000      0.000      0.000     -0.010      0.000
          OF    216.000     -5.167      0.000      8.794      0.000      0.000      0.000      0.000      0.061      0.000
          OF    218.000     -5.015      0.000      8.794      0.000      0.000      0.000      0.000      0.046      0.000
          OF    220.000     -4.983      0.000      8.794      0.000      0.000      0.000      0.000      0.038      0.000
          OF    222.000     -4.864      0.000      8.794      0.000      0.000      0.000      0.000      0.038      0.000
          OF    224.000     -4.833      0.000      8.794      0.000      0.000      0.000      0.000     -0.016      0.000
          OF    226.000     -4.926      0.000      8.794      0.000      0.000      0.000      0.000     -0.031      0.000
          OF    228.000     -4.956      0.000      8.794      0.000      0.000      0.000      0.000     -0.020      0.000
          OF    230.000     -5.006      0.000      8.793      0.000      0.000      0.000      0.000      0.036      0.000
          OF    232.000     -4.811      0.000      8.793      0.000      0.000      0.000      0.000      0.102      0.000
          OF    234.000     -4.597      0.000      8.793      0.000      0.000      0.000      0.000      0.034      0.000
          OF    236.000     -4.675      0.000      8.793      0.000      0.000      0.000      0.000     -0.064      0.000
          OF    238.000     -4.852      0.000      8.793      0.000      0.000      0.000      0.000     -0.089      0.000
          OF    240.000     -5.030      0.000      8.793      0.000      0.000      0.000      0.000     -0.088      0.000
          OF    242.800     -5.273      0.000      8.813      0.000      0.000      0.000      0.000     -0.067      0.000
          OF    246.100     -5.437      0.000      8.826      0.000      0.000      0.000      0.000     -0.007      0.000
          OF    249.300     -5.317      0.000      8.832      0.000      0.000      0.000      0.000      0.067      0.000
          OF    252.600     -5.000      0.000      8.835      0.000      0.000      0.000      0.000      0.070      0.000
          OF    255.900     -4.853      0.000      8.841      0.000      0.000      0.000      0.000      0.004      0.000
          OF    259.200     -4.971      0.000      8.852      0.000      0.000      0.000      0.000     -0.040      0.000
          OF    262.500     -5.119      0.000      8.863      0.000      0.000      0.000      0.000     -0.027      0.000
          OF    265.700     -5.144      0.000      8.871      0.000      0.000      0.000      0.000      0.001      0.000
          OF    269.000     -5.112      0.000      8.878      0.000      0.000      0.000      0.000     -0.012      0.000
          OF    272.300     -5.223      0.000      8.886      0.000      0.000      0.000      0.000     -0.016      0.000
          OF    275.600     -5.220      0.000      8.892      0.000      0.000      0.000      0.000      0.023      0.000
          OF    278.900     -5.073      0.000      8.896      0.000      0.000      0.000      0.000      0.025      0.000
          OF    282.200     -5.054      0.000      8.902      0.000      0.000      0.000      0.000      0.000      0.000
          OF    285.400     -5.070      0.000      8.909      0.000      0.000      0.000      0.000     -0.002      0.000
          OF    288.700     -5.068      0.000      8.915      0.000      0.000      0.000      0.000     -0.004      0.000
          OF    292.000     -5.093      0.000      8.921      0.000      0.000      0.000      0.000     -0.004      0.000
          OF    295.300     -5.092      0.000      8.927      0.000      0.000      0.000      0.000     -0.010      0.000
          OF    298.600     -5.159      0.000      8.933      0.000      0.000      0.000      0.000     -0.012      0.000
          OF    301.800     -5.168      0.000      8.938      0.000      0.000      0.000      0.000     -0.016      0.000
          OF    305.100     -5.261      0.000      8.944      0.000      0.000      0.000      0.000      0.005      0.000
          OF    308.400     -5.135      0.000      8.947      0.000      0.000      0.000      0.000      0.170      0.000
          OF    311.700     -4.142      0.000      8.936      0.000      0.000      0.000      0.000      0.412      0.000
          OF    315.000     -2.417      0.000      8.910      0.000      0.000      0.000      0.000      0.421      0.000
          OF    318.200     -1.403      0.000      8.899      0.000      0.000      0.000      0.000      0.257      0.000
          OF    321.500     -0.747      0.000      8.902      0.000      0.000      0.000      0.000      0.284      0.000
          IF    324.800      0.471      0.000      8.901      0.000      0.000      0.000      0.000      0.517      0.000
          IF    328.100      2.668      0.000      8.849      0.000      0.000      0.000      0.000      0.364      0.000
          IF    331.400      2.875      0.000      8.943      0.000      0.000      0.000      0.000      0.006      0.000
          IF    334.600      2.704      0.000      9.054      0.000      0.000      0.000      0.000     -0.033      0.000
          IF    337.900      2.663      0.000      9.141      0.000      0.000      0.000      0.000      0.062      0.000
          IF    341.200      3.115      0.000      9.192      0.000      0.000      0.000      0.000      0.072      0.000
          IF    344.500      3.140      0.000      9.264      0.000      0.000      0.000      0.000      0.020      0.000
          IF    347.800      3.244      0.000      9.325      0.000      0.000      0.000      0.000      0.062      0.000
          IF    351.000      3.544      0.000      9.373      0.000      0.000      0.000      0.000      0.095      0.000
          IF    354.300      3.862      0.000      9.417      0.000      0.000      0.000      0.000      0.086      0.000
          IF    357.600      4.112      0.000      9.465      0.000      0.000      0.000      0.000      0.036      0.000
          IF    360.900      4.103      0.000      9.510      0.000      0.000      0.000      0.000      0.014      0.000
          IF    364.200      4.201      0.000      9.548      0.000      0.000      0.000      0.000      0.009      0.000
          IF    367.500      4.162      0.000      9.560      0.000      0.000      0.000      0.000     -0.012      0.000
          IF    370.700      4.124      0.000      9.588      0.000      0.000      0.000      0.000      0.037      0.000
          IF    374.000      4.400      0.000      9.611      0.000      0.000      0.000      0.000      0.075      0.000
          IF    377.300      4.618      0.000      9.637      0.000      0.000      0.000      0.000      0.116      0.000
          IF    380.600      5.168      0.000      9.657      0.000      0.000      0.000      0.000      0.182      0.000
          IF    383.900      5.818      0.000      9.675      0.000      0.000      0.000      0.000      0.072      0.000
          IF    387.100      5.633      0.000      9.727      0.000      0.000      0.000      0.000     -0.018      0.000
          IF    390.400      5.699      0.000      9.761      0.000      0.000      0.000      0.000      0.051      0.000
          IF    393.700      5.966      0.000      9.786      0.000      0.000      0.000      0.000      0.078      0.000
          IF    397.000      6.215      0.000      9.812      0.000      0.000      0.000      0.000      0.008      0.000
          IF    400.300      6.017      0.000      9.846      0.000      0.000      0.000      0.000     -0.004      0.000
          IF    403.500      6.190      0.000      9.862      0.000      0.000      0.000      0.000      0.056      0.000
          IF    406.800      6.380      0.000      9.879      0.000      0.000      0.000      0.000      0.058      0.000
          IF    410.100      6.571      0.000      9.896      0.000      0.000      0.000      0.000      0.068      0.000
          IF    413.400      6.829      0.000      9.911      0.000      0.000      0.000      0.000      0.043      0.000
          IF    416.700      6.852      0.000      9.934      0.000      0.000      0.000      0.000     -0.007      0.000
          IF    419.900      6.782      0.000      9.954      0.000      0.000      0.000      0.000     -0.023      0.000
          IF    423.200      6.705      0.000      9.969      0.000      0.000      0.000      0.000     -0.032      0.000
          IF    426.500      6.570      0.000      9.981      0.000      0.000      0.000      0.000      0.027      0.000
          IF    429.800      6.884      0.000      9.983      0.000      0.000      0.000      0.000      0.095      0.000
          IF    433.100      7.198      0.000      9.989      0.000      0.000      0.000      0.000      0.095      0.000
          IF    436.400      7.512      0.000      9.997      0.000      0.000      0.000      0.000      0.099      0.000
          IF    439.600      7.844      0.000     10.019      0.000      0.000      0.000      0.000      0.107      0.000
          IF    442.900      8.209      0.000     10.051      0.000      0.000      0.000      0.000      0.159      0.000
          IF    444.000      8.545      0.000     10.051      0.000      0.000      0.000      0.000      0.239      0.000
          IF    446.000      8.951      0.000     10.051      0.000      0.000      0.000      0.000      0.203      0.000
          IF    448.000      9.358      0.000     10.051      0.000      0.000      0.000      0.000      0.271      0.000
