 WAVE HEIGHT COMPUTATIONS FOR FLOOD INSURANCE STUDIES (WHAFIS VERSION 4.0G, 08_2007)
 Executed on: Mon May 11 15:31:26 2020
 Input file:  C:\FEMA-TransectAnalysis\LOMR-TransectAnalysis-Biddeford\3_whafis\whafis4\YK-120.dat                                            
 Output file: C:\FEMA-TransectAnalysis\LOMR-TransectAnalysis-Biddeford\3_whafis\whafis4\YK-120.out                                            



                                                              header                                                                
                                                     THIS IS A 100-YEAR CASE


                                       THE FOLLOWING NON-DEFAULT WIND SPEEDS ARE BEING USED
                                            WINDIF  56.14  WINDOF  56.14  WINDVH  60.00

                                                             PART1 INPUT

          IE      0.000     -1.707      1.000      1.000      9.330     11.754     13.881     56.140      0.019      0.000
          OF      1.000     -1.689      0.000      9.330      0.000      0.000      0.000      0.000      0.019      0.000
          OF      2.000     -1.670      0.000      9.331      0.000      0.000      0.000      0.000      0.019      0.000
          OF      3.300     -1.645      0.000      9.333      0.000      0.000      0.000      0.000      0.019      0.000
          OF      6.600     -1.583      0.000      9.337      0.000      0.000      0.000      0.000      0.019      0.000
          OF      9.800     -1.521      0.000      9.340      0.000      0.000      0.000      0.000      0.019      0.000
          OF     13.100     -1.459      0.000      9.344      0.000      0.000      0.000      0.000      0.019      0.000
          OF     16.400     -1.397      0.000      9.348      0.000      0.000      0.000      0.000      0.019      0.000
          OF     19.700     -1.335      0.000      9.352      0.000      0.000      0.000      0.000      0.019      0.000
          OF     23.000     -1.273      0.000      9.356      0.000      0.000      0.000      0.000      0.019      0.000
          OF     26.200     -1.209      0.000      9.361      0.000      0.000      0.000      0.000      0.026      0.000
          OF     29.500     -1.101      0.000      9.364      0.000      0.000      0.000      0.000      0.034      0.000
          OF     32.800     -0.987      0.000      9.368      0.000      0.000      0.000      0.000      0.034      0.000
          OF     36.100     -0.874      0.000      9.372      0.000      0.000      0.000      0.000      0.034      0.000
          OF     39.400     -0.760      0.000      9.376      0.000      0.000      0.000      0.000      0.034      0.000
          OF     42.700     -0.646      0.000      9.380      0.000      0.000      0.000      0.000      0.035      0.000
          OF     45.900     -0.533      0.000      9.384      0.000      0.000      0.000      0.000      0.035      0.000
          OF     49.200     -0.419      0.000      9.388      0.000      0.000      0.000      0.000      0.034      0.000
          OF     52.500     -0.306      0.000      9.393      0.000      0.000      0.000      0.000      0.033      0.000
          OF     55.800     -0.204      0.000      9.398      0.000      0.000      0.000      0.000      0.029      0.000
          OF     59.100     -0.111      0.000      9.404      0.000      0.000      0.000      0.000      0.028      0.000
          OF     62.300     -0.019      0.000      9.409      0.000      0.000      0.000      0.000     -0.041      0.000
          OF     65.600     -0.380      0.000      9.422      0.000      0.000      0.000      0.000     -0.127      0.000
          OF     68.900     -0.857      0.000      9.434      0.000      0.000      0.000      0.000     -0.099      0.000
          OF     72.200     -1.033      0.000      9.440      0.000      0.000      0.000      0.000     -0.043      0.000
          OF     75.500     -1.140      0.000      9.445      0.000      0.000      0.000      0.000     -0.019      0.000
          OF     78.700     -1.157      0.000      9.449      0.000      0.000      0.000      0.000      0.014      0.000
          OF     82.000     -1.053      0.000      9.451      0.000      0.000      0.000      0.000      0.029      0.000
          OF     85.300     -0.966      0.000      9.453      0.000      0.000      0.000      0.000      0.046      0.000
          OF     88.600     -0.750      0.000      9.454      0.000      0.000      0.000      0.000      0.106      0.000
          OF     91.900     -0.267      0.000      9.452      0.000      0.000      0.000      0.000      0.148      0.000
          IF     95.100      0.215      0.000      9.450      0.000      0.000      0.000      0.000      0.148      0.000
          IF     98.400      0.697      0.000      9.449      0.000      0.000      0.000      0.000      0.136      0.000
          IF    101.700      1.113      0.000      9.450      0.000      0.000      0.000      0.000      0.117      0.000
          IF    105.000      1.468      0.000      9.454      0.000      0.000      0.000      0.000      0.108      0.000
          IF    108.300      1.824      0.000      9.459      0.000      0.000      0.000      0.000      0.099      0.000
          IF    111.500      2.113      0.000      9.466      0.000      0.000      0.000      0.000      0.078      0.000
          IF    114.800      2.328      0.000      9.476      0.000      0.000      0.000      0.000      0.073      0.000
          IF    118.100      2.598      0.000      9.486      0.000      0.000      0.000      0.000      0.118      0.000
          IF    121.400      3.105      0.000      9.493      0.000      0.000      0.000      0.000      0.152      0.000
          IF    124.700      3.599      0.000      9.502      0.000      0.000      0.000      0.000      0.113      0.000
          IF    128.000      3.852      0.000      9.522      0.000      0.000      0.000      0.000      0.078      0.000
          IF    131.200      4.106      0.000      9.543      0.000      0.000      0.000      0.000      0.093      0.000
          IF    134.500      4.459      0.000      9.563      0.000      0.000      0.000      0.000      0.125      0.000
          IF    137.800      4.928      0.000      9.582      0.000      0.000      0.000      0.000      0.141      0.000
          IF    141.100      5.391      0.000      9.602      0.000      0.000      0.000      0.000      0.097      0.000
          IF    144.400      5.571      0.000      9.640      0.000      0.000      0.000      0.000      0.055      0.000
          IF    147.600      5.750      0.000      9.674      0.000      0.000      0.000      0.000      0.071      0.000
          IF    150.900      6.035      0.000      9.703      0.000      0.000      0.000      0.000      0.127      0.000
          IF    154.200      6.591      0.000      9.718      0.000      0.000      0.000      0.000      0.169      0.000
          IF    157.500      7.147      0.000      9.774      0.000      0.000      0.000      0.000      0.169      0.000
          IF    160.800      7.703      0.000      9.915      0.000      0.000      0.000      0.000      0.149      0.000
          IF    164.000      8.114      0.000     10.029      0.000      0.000      0.000      0.000      0.113      0.000
          IF    167.300      8.437      0.000     10.118      0.000      0.000      0.000      0.000      0.098      0.000
          IF    170.600      8.760      0.000     10.209      0.000      0.000      0.000      0.000      0.041      0.000
          IF    173.900      8.705      0.000     10.272      0.000      0.000      0.000      0.000     -0.022      0.000
          IF    177.200      8.615      0.000     10.309      0.000      0.000      0.000      0.000      0.023      0.000
          IF    180.400      8.855      0.000     10.320      0.000      0.000      0.000      0.000      0.074      0.000
          IF    183.700      9.096      0.000     10.335      0.000      0.000      0.000      0.000      0.067      0.000
          IF    187.000      9.300      0.000     10.356      0.000      0.000      0.000      0.000      0.055      0.000
          IF    190.300      9.461      0.000     10.387      0.000      0.000      0.000      0.000      0.049      0.000
          IF    193.600      9.623      0.000     10.430      0.000      0.000      0.000      0.000      0.049      0.000
          IF    195.500      9.718      0.000     10.430      0.000      0.000      0.000      0.000     -0.011      0.000
          IF    205.500      9.488      0.000     10.430      0.000      0.000      0.000      0.000     -0.007      0.000
          IF    213.000      9.587      0.000     10.430      0.000      0.000      0.000      0.000      0.038      0.000
          IF    219.500     10.013      0.000     10.430      0.000      0.000      0.000      0.000      0.097      0.000
          IF    221.700     10.430      0.000     10.430      0.000      0.000      0.000      0.000      0.190      0.000
          AS    439.400      9.171      0.000      9.171      0.000      0.000      0.000      0.000     -0.150      0.000
          IF    441.000      8.930      0.000      9.171      0.000      0.000      0.000      0.000     -0.071      0.000
          IF    447.000      8.635      0.000      9.171      0.000      0.000      0.000      0.000      0.009      0.000
          IF    452.500      9.029      0.000      9.171      0.000      0.000      0.000      0.000      0.082      0.000
          IF    453.500      9.171      0.000      9.171      0.000      0.000      0.000      0.000      0.142      0.000
          AS    458.600      9.171      0.000      9.171      0.000      0.000      0.000      0.000     -0.930      0.000
          IF    459.000      8.799      0.000      9.171      0.000      0.000      0.000      0.000     -0.152      0.000
          IF    464.500      8.274      0.000      9.171      0.000      0.000      0.000      0.000     -0.068      0.000
          IF    471.000      7.979      0.000      9.171      0.000      0.000      0.000      0.000     -0.011      0.000
          IF    476.500      8.143      0.000      9.171      0.000      0.000      0.000      0.000     -0.005      0.000
          IF    484.500      7.913      0.000      9.171      0.000      0.000      0.000      0.000     -0.049      0.000
          IF    490.000      7.487      0.000      9.171      0.000      0.000      0.000      0.000     -0.029      0.000
          IF    497.000      7.552      0.000      9.171      0.000      0.000      0.000      0.000     -0.002      0.000
          IF    507.000      7.454      0.000      9.171      0.000      0.000      0.000      0.000     -0.025      0.000
          IF    515.500      7.093      0.000      9.171      0.000      0.000      0.000      0.000     -0.018      0.000
          IF    525.000      7.126      0.000      9.171      0.000      0.000      0.000      0.000     -0.003      0.000
          IF    535.000      7.028      0.000      9.171      0.000      0.000      0.000      0.000      0.011      0.000
          IF    540.000      7.290      0.000      9.171      0.000      0.000      0.000      0.000     -0.009      0.000
          IF    545.500      6.929      0.000      9.171      0.000      0.000      0.000      0.000     -0.032      0.000
          IF    554.500      6.831      0.000      9.171      0.000      0.000      0.000      0.000      0.032      0.000
          IF    563.000      7.487      0.000      9.171      0.000      0.000      0.000      0.000      0.047      0.000
          IF    572.000      7.651      0.000      9.171      0.000      0.000      0.000      0.000     -0.041      0.000
          IF    580.500      6.768      0.000      9.171      0.000      0.000      0.000      0.000     -0.013      0.000
          IF    587.000      7.457      0.000      9.171      0.000      0.000      0.000      0.000      0.063      0.000
          IF    591.000      7.424      0.000      9.171      0.000      0.000      0.000      0.000      0.087      0.000
          IF    597.500      8.373      0.000      9.171      0.000      0.000      0.000      0.000      0.028      0.000
          IF    606.000      7.848      0.000      9.171      0.000      0.000      0.000      0.000      0.018      0.000
          IF    612.000      8.635      0.000      9.171      0.000      0.000      0.000      0.000      0.036      0.000
          IF    617.000      8.241      0.000      9.171      0.000      0.000      0.000      0.000      0.023      0.000
          IF    625.000      8.930      0.000      9.171      0.000      0.000      0.000      0.000      0.029      0.000
          IF    638.500      8.865      0.000      9.170      0.000      0.000      0.000      0.000     -0.016      0.000
          IF    651.500      8.504      0.000      9.170      0.000      0.000      0.000      0.000      0.003      0.000
          IF    658.000      8.930      0.000      9.170      0.000      0.000      0.000      0.000     -0.023      0.000
          IF    660.000      8.307      0.000      9.170      0.000      0.000      0.000      0.000      0.015      0.000
          IF    666.500      9.062      0.000      9.170      0.000      0.000      0.000      0.000      0.047      0.000
          IF    674.000      8.963      0.000      9.170      0.000      0.000      0.000      0.000     -0.023      0.000
          IF    681.000      8.734      0.000      9.170      0.000      0.000      0.000      0.000      0.010      0.000
          IF    687.000      9.094      0.000      9.170      0.000      0.000      0.000      0.000      0.010      0.000
          IF    691.000      8.832      0.000      9.170      0.000      0.000      0.000      0.000      0.004      0.000
          IF    696.000      9.127      0.000      9.170      0.000      0.000      0.000      0.000      0.000      0.000
          IF    701.500      8.832      0.000      9.170      0.000      0.000      0.000      0.000      0.004      0.000
          IF    705.800      9.170      0.000      9.170      0.000      0.000      0.000      0.000      0.079      0.000
          AS    711.500      9.170      0.000      9.170      0.000      0.000      0.000      0.000     -0.143      0.000
          IF    715.000      8.668      0.000      9.170      0.000      0.000      0.000      0.000      0.000      0.000
          IF    719.400      9.170      0.000      9.170      0.000      0.000      0.000      0.000      0.114      0.000
          AS    730.600      9.170      0.000      9.170      0.000      0.000      0.000      0.000     -0.054      0.000
          IF    732.000      9.094      0.000      9.170      0.000      0.000      0.000      0.000      0.000      0.000
          IF    735.200      9.170      0.000      9.170      0.000      0.000      0.000      0.000      0.023      0.000
          AS    753.700      9.170      0.000      9.170      0.000      0.000      0.000      0.000     -0.033      0.000
          IF    758.000      9.029      0.000      9.170      0.000      0.000      0.000      0.000      0.000      0.000
          IF    761.400      9.170      0.000      9.170      0.000      0.000      0.000      0.000      0.042      0.000
          AS    811.200      9.172      0.000      9.172      0.000      0.000      0.000      0.000     -0.097      0.000
          IF    812.000      9.094      0.000      9.172      0.000      0.000      0.000      0.000      0.000      0.000
          IF    815.200      9.172      0.000      9.172      0.000      0.000      0.000      0.000      0.024      0.000
          AS    831.800      9.173      0.000      9.173      0.000      0.000      0.000      0.000     -0.018      0.000
          IF    832.500      9.160      0.000      9.173      0.000      0.000      0.000      0.000      0.000      0.000
          IF    832.600      9.173      0.000      9.173      0.000      0.000      0.000      0.000      0.128      0.000
          AS    874.200      9.174      0.000      9.174      0.000      0.000      0.000      0.000     -0.059      0.000
          IF    875.000      9.127      0.000      9.174      0.000      0.000      0.000      0.000     -0.038      0.000
          IF    884.000      8.799      0.000      9.174      0.000      0.000      0.000      0.000      0.004      0.000
          IF    887.300      9.174      0.000      9.174      0.000      0.000      0.000      0.000      0.114      0.000
          AS    888.200      9.174      0.000      9.174      0.000      0.000      0.000      0.000     -0.026      0.000
          IF    895.000      8.996      0.000      9.174      0.000      0.000      0.000      0.000     -0.220      0.000
          IF    902.000      6.142      0.000      9.175      0.000      0.000      0.000      0.000     -0.008      0.000
          IF    907.500      8.898      0.000      9.175      0.000      0.000      0.000      0.000      0.026      0.000
          IF    917.000      6.535      0.000      9.175      0.000      0.000      0.000      0.000     -0.153      0.000
          IF    924.500      6.306      0.000      9.175      0.000      0.000      0.000      0.000      0.058      0.000
          IF    929.500      7.257      0.000      9.175      0.000      0.000      0.000      0.000     -0.021      0.000
          IF    937.000      6.043      0.000      9.175      0.000      0.000      0.000      0.000     -0.147      0.000
          IF    942.000      5.420      0.000      9.175      0.000      0.000      0.000      0.000     -0.025      0.000
          IF    950.000      5.715      0.000      9.175      0.000      0.000      0.000      0.000      0.023      0.000
          IF    963.500      5.912      0.000      9.175      0.000      0.000      0.000      0.000      0.108      0.000
          IF    972.500      8.143      0.000      9.175      0.000      0.000      0.000      0.000      0.023      0.000
          IF    979.000      6.273      0.000      9.175      0.000      0.000      0.000      0.000     -0.133      0.000
          IF    990.000      5.814      0.000      9.175      0.000      0.000      0.000      0.000     -0.028      0.000
          IF   1001.000      5.650      0.000      9.175      0.000      0.000      0.000      0.000      0.029      0.000
          IF   1008.000      6.339      0.000      9.175      0.000      0.000      0.000      0.000      0.068      0.000
          IF   1015.000      6.601      0.000      9.175      0.000      0.000      0.000      0.000      0.157      0.000
          IF   1023.500      8.766      0.000      9.175      0.000      0.000      0.000      0.000      0.201      0.000
          IF   1027.800      9.175      0.000      9.175      0.000      0.000      0.000      0.000      0.095      0.000
          AS   1097.200      9.504      0.000      9.504      0.000      0.000      0.000      0.000     -0.278      0.000
          IF   1099.500      8.865      0.000      9.504      0.000      0.000      0.000      0.000     -0.140      0.000
          IF   1109.000      7.848      0.000      9.504      0.000      0.000      0.000      0.000     -0.051      0.000
          IF   1122.000      7.716      0.000      9.504      0.000      0.000      0.000      0.000      0.051      0.000
          IF   1135.000      9.160      0.000      9.504      0.000      0.000      0.000      0.000      0.075      0.000
          IF   1143.500      9.324      0.000      9.504      0.000      0.000      0.000      0.000      0.003      0.000
          IF   1157.500      9.226      0.000      9.504      0.000      0.000      0.000      0.000      0.008      0.000
          IF   1166.900      9.504      0.000      9.504      0.000      0.000      0.000      0.000      0.030      0.000
          AS   1309.600      9.504      0.000      9.504      0.000      0.000      0.000      0.000     -0.162      0.000
          IF   1315.000      8.632      0.000      9.504      0.000      0.000      0.000      0.000     -0.037      0.000
          IF   1322.500      9.026      0.000      9.504      0.000      0.000      0.000      0.000     -0.018      0.000
          IF   1335.000      8.274      0.000      9.504      0.000      0.000      0.000      0.000     -0.042      0.000
          IF   1346.000      8.045      0.000      9.504      0.000      0.000      0.000      0.000     -0.079      0.000
          IF   1359.000      6.368      0.000      9.504      0.000      0.000      0.000      0.000     -0.073      0.000
          IF   1368.500      6.404      0.000      9.504      0.000      0.000      0.000      0.000      0.033      0.000
          IF   1379.000      7.028      0.000      9.504      0.000      0.000      0.000      0.000      0.032      0.000
          IF   1390.000      7.093      0.000      9.504      0.000      0.000      0.000      0.000      0.040      0.000
          IF   1395.500      7.684      0.000      9.504      0.000      0.000      0.000      0.000     -0.002      0.000
          IF   1404.500      7.060      0.000      9.504      0.000      0.000      0.000      0.000     -0.039      0.000
          IF   1415.000      6.929      0.000      9.504      0.000      0.000      0.000      0.000     -0.004      0.000
          IF   1421.500      6.995      0.000      9.504      0.000      0.000      0.000      0.000     -0.028      0.000
          IF   1428.000      6.568      0.000      9.504      0.000      0.000      0.000      0.000     -0.051      0.000
          IF   1437.000      6.207      0.000      9.504      0.000      0.000      0.000      0.000     -0.018      0.000
          IF   1443.000      6.306      0.000      9.504      0.000      0.000      0.000      0.000      0.054      0.000
          IF   1448.000      6.798      0.000      9.504      0.000      0.000      0.000      0.000      0.052      0.000
          IF   1457.000      7.028      0.000      9.504      0.000      0.000      0.000      0.000      0.028      0.000
          IF   1464.500      7.257      0.000      9.504      0.000      0.000      0.000      0.000      0.030      0.000
          IF   1470.000      7.421      0.000      9.504      0.000      0.000      0.000      0.000      0.013      0.000
          IF   1477.000      7.418      0.000      9.504      0.000      0.000      0.000      0.000      0.176      0.000
          IF   1481.800      9.504      0.000      9.504      0.000      0.000      0.000      0.000      0.435      0.000
          ET      0.000      0.000      0.000      0.000      0.000      0.000      0.000      0.000      0.000      0.000
1


            END        END      FETCH SURGE ELEV SURGE ELEV    INITIAL    INITIAL                BOTTOM    AVERAGE
        STATION  ELEVATION     LENGTH    10-YEAR   100-YEAR WAVE HEIGHT  W. PERIOD                SLOPE    A-ZONES
  IE      0.000     -1.707      1.000      1.000      9.330     11.754     13.881     56.140      0.019      0.000


            END        END  NEW SURGE  NEW SURGE                                                 BOTTOM    AVERAGE
        STATION  ELEVATION    10-YEAR   100-YEAR                                                  SLOPE    A-ZONES
  OF      1.000     -1.689      0.000      9.330      0.000      0.000      0.000      0.000      0.019      0.000


            END        END  NEW SURGE  NEW SURGE                                                 BOTTOM    AVERAGE
        STATION  ELEVATION    10-YEAR   100-YEAR                                                  SLOPE    A-ZONES
  OF      2.000     -1.670      0.000      9.331      0.000      0.000      0.000      0.000      0.019      0.000


            END        END  NEW SURGE  NEW SURGE                                                 BOTTOM    AVERAGE
        STATION  ELEVATION    10-YEAR   100-YEAR                                                  SLOPE    A-ZONES
  OF      3.300     -1.645      0.000      9.333      0.000      0.000      0.000      0.000      0.019      0.000


            END        END  NEW SURGE  NEW SURGE                                                 BOTTOM    AVERAGE
        STATION  ELEVATION    10-YEAR   100-YEAR                                                  SLOPE    A-ZONES
  OF      6.600     -1.583      0.000      9.337      0.000      0.000      0.000      0.000      0.019      0.000


            END        END  NEW SURGE  NEW SURGE                                                 BOTTOM    AVERAGE
        STATION  ELEVATION    10-YEAR   100-YEAR                                                  SLOPE    A-ZONES
  OF      9.800     -1.521      0.000      9.340      0.000      0.000      0.000      0.000      0.019      0.000


            END        END  NEW SURGE  NEW SURGE                                                 BOTTOM    AVERAGE
        STATION  ELEVATION    10-YEAR   100-YEAR                                                  SLOPE    A-ZONES
  OF     13.100     -1.459      0.000      9.344      0.000      0.000      0.000      0.000      0.019      0.000


            END        END  NEW SURGE  NEW SURGE                                                 BOTTOM    AVERAGE
        STATION  ELEVATION    10-YEAR   100-YEAR                                                  SLOPE    A-ZONES
  OF     16.400     -1.397      0.000      9.348      0.000      0.000      0.000      0.000      0.019      0.000


            END        END  NEW SURGE  NEW SURGE                                                 BOTTOM    AVERAGE
        STATION  ELEVATION    10-YEAR   100-YEAR                                                  SLOPE    A-ZONES
  OF     19.700     -1.335      0.000      9.352      0.000      0.000      0.000      0.000      0.019      0.000


            END        END  NEW SURGE  NEW SURGE                                                 BOTTOM    AVERAGE
        STATION  ELEVATION    10-YEAR   100-YEAR                                                  SLOPE    A-ZONES
  OF     23.000     -1.273      0.000      9.356      0.000      0.000      0.000      0.000      0.019      0.000


            END        END  NEW SURGE  NEW SURGE                                                 BOTTOM    AVERAGE
        STATION  ELEVATION    10-YEAR   100-YEAR                                                  SLOPE    A-ZONES
  OF     26.200     -1.209      0.000      9.361      0.000      0.000      0.000      0.000      0.026      0.000


            END        END  NEW SURGE  NEW SURGE                                                 BOTTOM    AVERAGE
        STATION  ELEVATION    10-YEAR   100-YEAR                                                  SLOPE    A-ZONES
  OF     29.500     -1.101      0.000      9.364      0.000      0.000      0.000      0.000      0.034      0.000


            END        END  NEW SURGE  NEW SURGE                                                 BOTTOM    AVERAGE
        STATION  ELEVATION    10-YEAR   100-YEAR                                                  SLOPE    A-ZONES
  OF     32.800     -0.987      0.000      9.368      0.000      0.000      0.000      0.000      0.034      0.000


            END        END  NEW SURGE  NEW SURGE                                                 BOTTOM    AVERAGE
        STATION  ELEVATION    10-YEAR   100-YEAR                                                  SLOPE    A-ZONES
  OF     36.100     -0.874      0.000      9.372      0.000      0.000      0.000      0.000      0.034      0.000


            END        END  NEW SURGE  NEW SURGE                                                 BOTTOM    AVERAGE
        STATION  ELEVATION    10-YEAR   100-YEAR                                                  SLOPE    A-ZONES
  OF     39.400     -0.760      0.000      9.376      0.000      0.000      0.000      0.000      0.034      0.000


            END        END  NEW SURGE  NEW SURGE                                                 BOTTOM    AVERAGE
        STATION  ELEVATION    10-YEAR   100-YEAR                                                  SLOPE    A-ZONES
  OF     42.700     -0.646      0.000      9.380      0.000      0.000      0.000      0.000      0.035      0.000


            END        END  NEW SURGE  NEW SURGE                                                 BOTTOM    AVERAGE
        STATION  ELEVATION    10-YEAR   100-YEAR                                                  SLOPE    A-ZONES
  OF     45.900     -0.533      0.000      9.384      0.000      0.000      0.000      0.000      0.035      0.000


            END        END  NEW SURGE  NEW SURGE                                                 BOTTOM    AVERAGE
        STATION  ELEVATION    10-YEAR   100-YEAR                                                  SLOPE    A-ZONES
  OF     49.200     -0.419      0.000      9.388      0.000      0.000      0.000      0.000      0.034      0.000


            END        END  NEW SURGE  NEW SURGE                                                 BOTTOM    AVERAGE
        STATION  ELEVATION    10-YEAR   100-YEAR                                                  SLOPE    A-ZONES
  OF     52.500     -0.306      0.000      9.393      0.000      0.000      0.000      0.000      0.033      0.000


            END        END  NEW SURGE  NEW SURGE                                                 BOTTOM    AVERAGE
        STATION  ELEVATION    10-YEAR   100-YEAR                                                  SLOPE    A-ZONES
  OF     55.800     -0.204      0.000      9.398      0.000      0.000      0.000      0.000      0.029      0.000


            END        END  NEW SURGE  NEW SURGE                                                 BOTTOM    AVERAGE
        STATION  ELEVATION    10-YEAR   100-YEAR                                                  SLOPE    A-ZONES
  OF     59.100     -0.111      0.000      9.404      0.000      0.000      0.000      0.000      0.028      0.000


            END        END  NEW SURGE  NEW SURGE                                                 BOTTOM    AVERAGE
        STATION  ELEVATION    10-YEAR   100-YEAR                                                  SLOPE    A-ZONES
  OF     62.300     -0.019      0.000      9.409      0.000      0.000      0.000      0.000     -0.041      0.000


            END        END  NEW SURGE  NEW SURGE                                                 BOTTOM    AVERAGE
        STATION  ELEVATION    10-YEAR   100-YEAR                                                  SLOPE    A-ZONES
  OF     65.600     -0.380      0.000      9.422      0.000      0.000      0.000      0.000     -0.127      0.000


            END        END  NEW SURGE  NEW SURGE                                                 BOTTOM    AVERAGE
        STATION  ELEVATION    10-YEAR   100-YEAR                                                  SLOPE    A-ZONES
  OF     68.900     -0.857      0.000      9.434      0.000      0.000      0.000      0.000     -0.099      0.000


            END        END  NEW SURGE  NEW SURGE                                                 BOTTOM    AVERAGE
        STATION  ELEVATION    10-YEAR   100-YEAR                                                  SLOPE    A-ZONES
  OF     72.200     -1.033      0.000      9.440      0.000      0.000      0.000      0.000     -0.043      0.000


            END        END  NEW SURGE  NEW SURGE                                                 BOTTOM    AVERAGE
        STATION  ELEVATION    10-YEAR   100-YEAR                                                  SLOPE    A-ZONES
  OF     75.500     -1.140      0.000      9.445      0.000      0.000      0.000      0.000     -0.019      0.000


            END        END  NEW SURGE  NEW SURGE                                                 BOTTOM    AVERAGE
        STATION  ELEVATION    10-YEAR   100-YEAR                                                  SLOPE    A-ZONES
  OF     78.700     -1.157      0.000      9.449      0.000      0.000      0.000      0.000      0.014      0.000


            END        END  NEW SURGE  NEW SURGE                                                 BOTTOM    AVERAGE
        STATION  ELEVATION    10-YEAR   100-YEAR                                                  SLOPE    A-ZONES
  OF     82.000     -1.053      0.000      9.451      0.000      0.000      0.000      0.000      0.029      0.000


            END        END  NEW SURGE  NEW SURGE                                                 BOTTOM    AVERAGE
        STATION  ELEVATION    10-YEAR   100-YEAR                                                  SLOPE    A-ZONES
  OF     85.300     -0.966      0.000      9.453      0.000      0.000      0.000      0.000      0.046      0.000


            END        END  NEW SURGE  NEW SURGE                                                 BOTTOM    AVERAGE
        STATION  ELEVATION    10-YEAR   100-YEAR                                                  SLOPE    A-ZONES
  OF     88.600     -0.750      0.000      9.454      0.000      0.000      0.000      0.000      0.106      0.000


            END        END  NEW SURGE  NEW SURGE                                                 BOTTOM    AVERAGE
        STATION  ELEVATION    10-YEAR   100-YEAR                                                  SLOPE    A-ZONES
  OF     91.900     -0.267      0.000      9.452      0.000      0.000      0.000      0.000      0.148      0.000


            END        END  NEW SURGE  NEW SURGE                                                 BOTTOM    AVERAGE
        STATION  ELEVATION    10-YEAR   100-YEAR                                                  SLOPE    A-ZONES
  IF     95.100      0.215      0.000      9.450      0.000      0.000      0.000      0.000      0.148      0.000


            END        END  NEW SURGE  NEW SURGE                                                 BOTTOM    AVERAGE
        STATION  ELEVATION    10-YEAR   100-YEAR                                                  SLOPE    A-ZONES
  IF     98.400      0.697      0.000      9.449      0.000      0.000      0.000      0.000      0.136      0.000


            END        END  NEW SURGE  NEW SURGE                                                 BOTTOM    AVERAGE
        STATION  ELEVATION    10-YEAR   100-YEAR                                                  SLOPE    A-ZONES
  IF    101.700      1.113      0.000      9.450      0.000      0.000      0.000      0.000      0.117      0.000


            END        END  NEW SURGE  NEW SURGE                                                 BOTTOM    AVERAGE
        STATION  ELEVATION    10-YEAR   100-YEAR                                                  SLOPE    A-ZONES
  IF    105.000      1.468      0.000      9.454      0.000      0.000      0.000      0.000      0.108      0.000


            END        END  NEW SURGE  NEW SURGE                                                 BOTTOM    AVERAGE
        STATION  ELEVATION    10-YEAR   100-YEAR                                                  SLOPE    A-ZONES
  IF    108.300      1.824      0.000      9.459      0.000      0.000      0.000      0.000      0.099      0.000


            END        END  NEW SURGE  NEW SURGE                                                 BOTTOM    AVERAGE
        STATION  ELEVATION    10-YEAR   100-YEAR                                                  SLOPE    A-ZONES
  IF    111.500      2.113      0.000      9.466      0.000      0.000      0.000      0.000      0.078      0.000


            END        END  NEW SURGE  NEW SURGE                                                 BOTTOM    AVERAGE
        STATION  ELEVATION    10-YEAR   100-YEAR                                                  SLOPE    A-ZONES
  IF    114.800      2.328      0.000      9.476      0.000      0.000      0.000      0.000      0.073      0.000


            END        END  NEW SURGE  NEW SURGE                                                 BOTTOM    AVERAGE
        STATION  ELEVATION    10-YEAR   100-YEAR                                                  SLOPE    A-ZONES
  IF    118.100      2.598      0.000      9.486      0.000      0.000      0.000      0.000      0.118      0.000


            END        END  NEW SURGE  NEW SURGE                                                 BOTTOM    AVERAGE
        STATION  ELEVATION    10-YEAR   100-YEAR                                                  SLOPE    A-ZONES
  IF    121.400      3.105      0.000      9.493      0.000      0.000      0.000      0.000      0.152      0.000


            END        END  NEW SURGE  NEW SURGE                                                 BOTTOM    AVERAGE
        STATION  ELEVATION    10-YEAR   100-YEAR                                                  SLOPE    A-ZONES
  IF    124.700      3.599      0.000      9.502      0.000      0.000      0.000      0.000      0.113      0.000


            END        END  NEW SURGE  NEW SURGE                                                 BOTTOM    AVERAGE
        STATION  ELEVATION    10-YEAR   100-YEAR                                                  SLOPE    A-ZONES
  IF    128.000      3.852      0.000      9.522      0.000      0.000      0.000      0.000      0.078      0.000


            END        END  NEW SURGE  NEW SURGE                                                 BOTTOM    AVERAGE
        STATION  ELEVATION    10-YEAR   100-YEAR                                                  SLOPE    A-ZONES
  IF    131.200      4.106      0.000      9.543      0.000      0.000      0.000      0.000      0.093      0.000


            END        END  NEW SURGE  NEW SURGE                                                 BOTTOM    AVERAGE
        STATION  ELEVATION    10-YEAR   100-YEAR                                                  SLOPE    A-ZONES
  IF    134.500      4.459      0.000      9.563      0.000      0.000      0.000      0.000      0.125      0.000


            END        END  NEW SURGE  NEW SURGE                                                 BOTTOM    AVERAGE
        STATION  ELEVATION    10-YEAR   100-YEAR                                                  SLOPE    A-ZONES
  IF    137.800      4.928      0.000      9.582      0.000      0.000      0.000      0.000      0.141      0.000


            END        END  NEW SURGE  NEW SURGE                                                 BOTTOM    AVERAGE
        STATION  ELEVATION    10-YEAR   100-YEAR                                                  SLOPE    A-ZONES
  IF    141.100      5.391      0.000      9.602      0.000      0.000      0.000      0.000      0.097      0.000


            END        END  NEW SURGE  NEW SURGE                                                 BOTTOM    AVERAGE
        STATION  ELEVATION    10-YEAR   100-YEAR                                                  SLOPE    A-ZONES
  IF    144.400      5.571      0.000      9.640      0.000      0.000      0.000      0.000      0.055      0.000


            END        END  NEW SURGE  NEW SURGE                                                 BOTTOM    AVERAGE
        STATION  ELEVATION    10-YEAR   100-YEAR                                                  SLOPE    A-ZONES
  IF    147.600      5.750      0.000      9.674      0.000      0.000      0.000      0.000      0.071      0.000


            END        END  NEW SURGE  NEW SURGE                                                 BOTTOM    AVERAGE
        STATION  ELEVATION    10-YEAR   100-YEAR                                                  SLOPE    A-ZONES
  IF    150.900      6.035      0.000      9.703      0.000      0.000      0.000      0.000      0.127      0.000


            END        END  NEW SURGE  NEW SURGE                                                 BOTTOM    AVERAGE
        STATION  ELEVATION    10-YEAR   100-YEAR                                                  SLOPE    A-ZONES
  IF    154.200      6.591      0.000      9.718      0.000      0.000      0.000      0.000      0.169      0.000


            END        END  NEW SURGE  NEW SURGE                                                 BOTTOM    AVERAGE
        STATION  ELEVATION    10-YEAR   100-YEAR                                                  SLOPE    A-ZONES
  IF    157.500      7.147      0.000      9.774      0.000      0.000      0.000      0.000      0.169      0.000


            END        END  NEW SURGE  NEW SURGE                                                 BOTTOM    AVERAGE
        STATION  ELEVATION    10-YEAR   100-YEAR                                                  SLOPE    A-ZONES
  IF    160.800      7.703      0.000      9.915      0.000      0.000      0.000      0.000      0.149      0.000


            END        END  NEW SURGE  NEW SURGE                                                 BOTTOM    AVERAGE
        STATION  ELEVATION    10-YEAR   100-YEAR                                                  SLOPE    A-ZONES
  IF    164.000      8.114      0.000     10.029      0.000      0.000      0.000      0.000      0.113      0.000


            END        END  NEW SURGE  NEW SURGE                                                 BOTTOM    AVERAGE
        STATION  ELEVATION    10-YEAR   100-YEAR                                                  SLOPE    A-ZONES
  IF    167.300      8.437      0.000     10.118      0.000      0.000      0.000      0.000      0.098      0.000


            END        END  NEW SURGE  NEW SURGE                                                 BOTTOM    AVERAGE
        STATION  ELEVATION    10-YEAR   100-YEAR                                                  SLOPE    A-ZONES
  IF    170.600      8.760      0.000     10.209      0.000      0.000      0.000      0.000      0.041      0.000


            END        END  NEW SURGE  NEW SURGE                                                 BOTTOM    AVERAGE
        STATION  ELEVATION    10-YEAR   100-YEAR                                                  SLOPE    A-ZONES
  IF    173.900      8.705      0.000     10.272      0.000      0.000      0.000      0.000     -0.022      0.000


            END        END  NEW SURGE  NEW SURGE                                                 BOTTOM    AVERAGE
        STATION  ELEVATION    10-YEAR   100-YEAR                                                  SLOPE    A-ZONES
  IF    177.200      8.615      0.000     10.309      0.000      0.000      0.000      0.000      0.023      0.000


            END        END  NEW SURGE  NEW SURGE                                                 BOTTOM    AVERAGE
        STATION  ELEVATION    10-YEAR   100-YEAR                                                  SLOPE    A-ZONES
  IF    180.400      8.855      0.000     10.320      0.000      0.000      0.000      0.000      0.074      0.000


            END        END  NEW SURGE  NEW SURGE                                                 BOTTOM    AVERAGE
        STATION  ELEVATION    10-YEAR   100-YEAR                                                  SLOPE    A-ZONES
  IF    183.700      9.096      0.000     10.335      0.000      0.000      0.000      0.000      0.067      0.000


            END        END  NEW SURGE  NEW SURGE                                                 BOTTOM    AVERAGE
        STATION  ELEVATION    10-YEAR   100-YEAR                                                  SLOPE    A-ZONES
  IF    187.000      9.300      0.000     10.356      0.000      0.000      0.000      0.000      0.055      0.000


            END        END  NEW SURGE  NEW SURGE                                                 BOTTOM    AVERAGE
        STATION  ELEVATION    10-YEAR   100-YEAR                                                  SLOPE    A-ZONES
  IF    190.300      9.461      0.000     10.387      0.000      0.000      0.000      0.000      0.049      0.000


            END        END  NEW SURGE  NEW SURGE                                                 BOTTOM    AVERAGE
        STATION  ELEVATION    10-YEAR   100-YEAR                                                  SLOPE    A-ZONES
  IF    193.600      9.623      0.000     10.430      0.000      0.000      0.000      0.000      0.049      0.000


            END        END  NEW SURGE  NEW SURGE                                                 BOTTOM    AVERAGE
        STATION  ELEVATION    10-YEAR   100-YEAR                                                  SLOPE    A-ZONES
  IF    195.500      9.718      0.000     10.430      0.000      0.000      0.000      0.000     -0.011      0.000


            END        END  NEW SURGE  NEW SURGE                                                 BOTTOM    AVERAGE
        STATION  ELEVATION    10-YEAR   100-YEAR                                                  SLOPE    A-ZONES
  IF    205.500      9.488      0.000     10.430      0.000      0.000      0.000      0.000     -0.007      0.000


            END        END  NEW SURGE  NEW SURGE                                                 BOTTOM    AVERAGE
        STATION  ELEVATION    10-YEAR   100-YEAR                                                  SLOPE    A-ZONES
  IF    213.000      9.587      0.000     10.430      0.000      0.000      0.000      0.000      0.038      0.000


            END        END  NEW SURGE  NEW SURGE                                                 BOTTOM    AVERAGE
        STATION  ELEVATION    10-YEAR   100-YEAR                                                  SLOPE    A-ZONES
  IF    219.500     10.013      0.000     10.430      0.000      0.000      0.000      0.000      0.097      0.000


            END        END  NEW SURGE  NEW SURGE                                                 BOTTOM    AVERAGE
        STATION  ELEVATION    10-YEAR   100-YEAR                                                  SLOPE    A-ZONES
  IF    221.700     10.430      0.000     10.430      0.000      0.000      0.000      0.000      0.190      0.000


            END        END  NEW SURGE  NEW SURGE                                                 BOTTOM    AVERAGE
        STATION  ELEVATION    10-YEAR   100-YEAR                                                  SLOPE    A-ZONES
  AS    439.400      9.171      0.000      9.171      0.000      0.000      0.000      0.000     -0.150      0.000


            END        END  NEW SURGE  NEW SURGE                                                 BOTTOM    AVERAGE
        STATION  ELEVATION    10-YEAR   100-YEAR                                                  SLOPE    A-ZONES
  IF    441.000      8.930      0.000      9.171      0.000      0.000      0.000      0.000     -0.071      0.000


            END        END  NEW SURGE  NEW SURGE                                                 BOTTOM    AVERAGE
        STATION  ELEVATION    10-YEAR   100-YEAR                                                  SLOPE    A-ZONES
  IF    447.000      8.635      0.000      9.171      0.000      0.000      0.000      0.000      0.009      0.000


            END        END  NEW SURGE  NEW SURGE                                                 BOTTOM    AVERAGE
        STATION  ELEVATION    10-YEAR   100-YEAR                                                  SLOPE    A-ZONES
  IF    452.500      9.029      0.000      9.171      0.000      0.000      0.000      0.000      0.082      0.000


            END        END  NEW SURGE  NEW SURGE                                                 BOTTOM    AVERAGE
        STATION  ELEVATION    10-YEAR   100-YEAR                                                  SLOPE    A-ZONES
  IF    453.500      9.171      0.000      9.171      0.000      0.000      0.000      0.000      0.142      0.000


            END        END  NEW SURGE  NEW SURGE                                                 BOTTOM    AVERAGE
        STATION  ELEVATION    10-YEAR   100-YEAR                                                  SLOPE    A-ZONES
  AS    458.600      9.171      0.000      9.171      0.000      0.000      0.000      0.000     -0.930      0.000


            END        END  NEW SURGE  NEW SURGE                                                 BOTTOM    AVERAGE
        STATION  ELEVATION    10-YEAR   100-YEAR                                                  SLOPE    A-ZONES
  IF    459.000      8.799      0.000      9.171      0.000      0.000      0.000      0.000     -0.152      0.000


            END        END  NEW SURGE  NEW SURGE                                                 BOTTOM    AVERAGE
        STATION  ELEVATION    10-YEAR   100-YEAR                                                  SLOPE    A-ZONES
  IF    464.500      8.274      0.000      9.171      0.000      0.000      0.000      0.000     -0.068      0.000


            END        END  NEW SURGE  NEW SURGE                                                 BOTTOM    AVERAGE
        STATION  ELEVATION    10-YEAR   100-YEAR                                                  SLOPE    A-ZONES
  IF    471.000      7.979      0.000      9.171      0.000      0.000      0.000      0.000     -0.011      0.000


            END        END  NEW SURGE  NEW SURGE                                                 BOTTOM    AVERAGE
        STATION  ELEVATION    10-YEAR   100-YEAR                                                  SLOPE    A-ZONES
  IF    476.500      8.143      0.000      9.171      0.000      0.000      0.000      0.000     -0.005      0.000


            END        END  NEW SURGE  NEW SURGE                                                 BOTTOM    AVERAGE
        STATION  ELEVATION    10-YEAR   100-YEAR                                                  SLOPE    A-ZONES
  IF    484.500      7.913      0.000      9.171      0.000      0.000      0.000      0.000     -0.049      0.000


            END        END  NEW SURGE  NEW SURGE                                                 BOTTOM    AVERAGE
        STATION  ELEVATION    10-YEAR   100-YEAR                                                  SLOPE    A-ZONES
  IF    490.000      7.487      0.000      9.171      0.000      0.000      0.000      0.000     -0.029      0.000


            END        END  NEW SURGE  NEW SURGE                                                 BOTTOM    AVERAGE
        STATION  ELEVATION    10-YEAR   100-YEAR                                                  SLOPE    A-ZONES
  IF    497.000      7.552      0.000      9.171      0.000      0.000      0.000      0.000     -0.002      0.000


            END        END  NEW SURGE  NEW SURGE                                                 BOTTOM    AVERAGE
        STATION  ELEVATION    10-YEAR   100-YEAR                                                  SLOPE    A-ZONES
  IF    507.000      7.454      0.000      9.171      0.000      0.000      0.000      0.000     -0.025      0.000


            END        END  NEW SURGE  NEW SURGE                                                 BOTTOM    AVERAGE
        STATION  ELEVATION    10-YEAR   100-YEAR                                                  SLOPE    A-ZONES
  IF    515.500      7.093      0.000      9.171      0.000      0.000      0.000      0.000     -0.018      0.000


            END        END  NEW SURGE  NEW SURGE                                                 BOTTOM    AVERAGE
        STATION  ELEVATION    10-YEAR   100-YEAR                                                  SLOPE    A-ZONES
  IF    525.000      7.126      0.000      9.171      0.000      0.000      0.000      0.000     -0.003      0.000


            END        END  NEW SURGE  NEW SURGE                                                 BOTTOM    AVERAGE
        STATION  ELEVATION    10-YEAR   100-YEAR                                                  SLOPE    A-ZONES
  IF    535.000      7.028      0.000      9.171      0.000      0.000      0.000      0.000      0.011      0.000


            END        END  NEW SURGE  NEW SURGE                                                 BOTTOM    AVERAGE
        STATION  ELEVATION    10-YEAR   100-YEAR                                                  SLOPE    A-ZONES
  IF    540.000      7.290      0.000      9.171      0.000      0.000      0.000      0.000     -0.009      0.000


            END        END  NEW SURGE  NEW SURGE                                                 BOTTOM    AVERAGE
        STATION  ELEVATION    10-YEAR   100-YEAR                                                  SLOPE    A-ZONES
  IF    545.500      6.929      0.000      9.171      0.000      0.000      0.000      0.000     -0.032      0.000


            END        END  NEW SURGE  NEW SURGE                                                 BOTTOM    AVERAGE
        STATION  ELEVATION    10-YEAR   100-YEAR                                                  SLOPE    A-ZONES
  IF    554.500      6.831      0.000      9.171      0.000      0.000      0.000      0.000      0.032      0.000


            END        END  NEW SURGE  NEW SURGE                                                 BOTTOM    AVERAGE
        STATION  ELEVATION    10-YEAR   100-YEAR                                                  SLOPE    A-ZONES
  IF    563.000      7.487      0.000      9.171      0.000      0.000      0.000      0.000      0.047      0.000


            END        END  NEW SURGE  NEW SURGE                                                 BOTTOM    AVERAGE
        STATION  ELEVATION    10-YEAR   100-YEAR                                                  SLOPE    A-ZONES
  IF    572.000      7.651      0.000      9.171      0.000      0.000      0.000      0.000     -0.041      0.000


            END        END  NEW SURGE  NEW SURGE                                                 BOTTOM    AVERAGE
        STATION  ELEVATION    10-YEAR   100-YEAR                                                  SLOPE    A-ZONES
  IF    580.500      6.768      0.000      9.171      0.000      0.000      0.000      0.000     -0.013      0.000


            END        END  NEW SURGE  NEW SURGE                                                 BOTTOM    AVERAGE
        STATION  ELEVATION    10-YEAR   100-YEAR                                                  SLOPE    A-ZONES
  IF    587.000      7.457      0.000      9.171      0.000      0.000      0.000      0.000      0.063      0.000


            END        END  NEW SURGE  NEW SURGE                                                 BOTTOM    AVERAGE
        STATION  ELEVATION    10-YEAR   100-YEAR                                                  SLOPE    A-ZONES
  IF    591.000      7.424      0.000      9.171      0.000      0.000      0.000      0.000      0.087      0.000


            END        END  NEW SURGE  NEW SURGE                                                 BOTTOM    AVERAGE
        STATION  ELEVATION    10-YEAR   100-YEAR                                                  SLOPE    A-ZONES
  IF    597.500      8.373      0.000      9.171      0.000      0.000      0.000      0.000      0.028      0.000


            END        END  NEW SURGE  NEW SURGE                                                 BOTTOM    AVERAGE
        STATION  ELEVATION    10-YEAR   100-YEAR                                                  SLOPE    A-ZONES
  IF    606.000      7.848      0.000      9.171      0.000      0.000      0.000      0.000      0.018      0.000


            END        END  NEW SURGE  NEW SURGE                                                 BOTTOM    AVERAGE
        STATION  ELEVATION    10-YEAR   100-YEAR                                                  SLOPE    A-ZONES
  IF    612.000      8.635      0.000      9.171      0.000      0.000      0.000      0.000      0.036      0.000


            END        END  NEW SURGE  NEW SURGE                                                 BOTTOM    AVERAGE
        STATION  ELEVATION    10-YEAR   100-YEAR                                                  SLOPE    A-ZONES
  IF    617.000      8.241      0.000      9.171      0.000      0.000      0.000      0.000      0.023      0.000


            END        END  NEW SURGE  NEW SURGE                                                 BOTTOM    AVERAGE
        STATION  ELEVATION    10-YEAR   100-YEAR                                                  SLOPE    A-ZONES
  IF    625.000      8.930      0.000      9.171      0.000      0.000      0.000      0.000      0.029      0.000


            END        END  NEW SURGE  NEW SURGE                                                 BOTTOM    AVERAGE
        STATION  ELEVATION    10-YEAR   100-YEAR                                                  SLOPE    A-ZONES
  IF    638.500      8.865      0.000      9.170      0.000      0.000      0.000      0.000     -0.016      0.000


            END        END  NEW SURGE  NEW SURGE                                                 BOTTOM    AVERAGE
        STATION  ELEVATION    10-YEAR   100-YEAR                                                  SLOPE    A-ZONES
  IF    651.500      8.504      0.000      9.170      0.000      0.000      0.000      0.000      0.003      0.000


            END        END  NEW SURGE  NEW SURGE                                                 BOTTOM    AVERAGE
        STATION  ELEVATION    10-YEAR   100-YEAR                                                  SLOPE    A-ZONES
  IF    658.000      8.930      0.000      9.170      0.000      0.000      0.000      0.000     -0.023      0.000


            END        END  NEW SURGE  NEW SURGE                                                 BOTTOM    AVERAGE
        STATION  ELEVATION    10-YEAR   100-YEAR                                                  SLOPE    A-ZONES
  IF    660.000      8.307      0.000      9.170      0.000      0.000      0.000      0.000      0.015      0.000


            END        END  NEW SURGE  NEW SURGE                                                 BOTTOM    AVERAGE
        STATION  ELEVATION    10-YEAR   100-YEAR                                                  SLOPE    A-ZONES
  IF    666.500      9.062      0.000      9.170      0.000      0.000      0.000      0.000      0.047      0.000


            END        END  NEW SURGE  NEW SURGE                                                 BOTTOM    AVERAGE
        STATION  ELEVATION    10-YEAR   100-YEAR                                                  SLOPE    A-ZONES
  IF    674.000      8.963      0.000      9.170      0.000      0.000      0.000      0.000     -0.023      0.000


            END        END  NEW SURGE  NEW SURGE                                                 BOTTOM    AVERAGE
        STATION  ELEVATION    10-YEAR   100-YEAR                                                  SLOPE    A-ZONES
  IF    681.000      8.734      0.000      9.170      0.000      0.000      0.000      0.000      0.010      0.000


            END        END  NEW SURGE  NEW SURGE                                                 BOTTOM    AVERAGE
        STATION  ELEVATION    10-YEAR   100-YEAR                                                  SLOPE    A-ZONES
  IF    687.000      9.094      0.000      9.170      0.000      0.000      0.000      0.000      0.010      0.000


            END        END  NEW SURGE  NEW SURGE                                                 BOTTOM    AVERAGE
        STATION  ELEVATION    10-YEAR   100-YEAR                                                  SLOPE    A-ZONES
  IF    691.000      8.832      0.000      9.170      0.000      0.000      0.000      0.000      0.004      0.000


            END        END  NEW SURGE  NEW SURGE                                                 BOTTOM    AVERAGE
        STATION  ELEVATION    10-YEAR   100-YEAR                                                  SLOPE    A-ZONES
  IF    696.000      9.127      0.000      9.170      0.000      0.000      0.000      0.000      0.000      0.000


            END        END  NEW SURGE  NEW SURGE                                                 BOTTOM    AVERAGE
        STATION  ELEVATION    10-YEAR   100-YEAR                                                  SLOPE    A-ZONES
  IF    701.500      8.832      0.000      9.170      0.000      0.000      0.000      0.000      0.004      0.000


            END        END  NEW SURGE  NEW SURGE                                                 BOTTOM    AVERAGE
        STATION  ELEVATION    10-YEAR   100-YEAR                                                  SLOPE    A-ZONES
  IF    705.800      9.170      0.000      9.170      0.000      0.000      0.000      0.000      0.079      0.000


            END        END  NEW SURGE  NEW SURGE                                                 BOTTOM    AVERAGE
        STATION  ELEVATION    10-YEAR   100-YEAR                                                  SLOPE    A-ZONES
  AS    711.500      9.170      0.000      9.170      0.000      0.000      0.000      0.000     -0.143      0.000


            END        END  NEW SURGE  NEW SURGE                                                 BOTTOM    AVERAGE
        STATION  ELEVATION    10-YEAR   100-YEAR                                                  SLOPE    A-ZONES
  IF    715.000      8.668      0.000      9.170      0.000      0.000      0.000      0.000      0.000      0.000


            END        END  NEW SURGE  NEW SURGE                                                 BOTTOM    AVERAGE
        STATION  ELEVATION    10-YEAR   100-YEAR                                                  SLOPE    A-ZONES
  IF    719.400      9.170      0.000      9.170      0.000      0.000      0.000      0.000      0.114      0.000


            END        END  NEW SURGE  NEW SURGE                                                 BOTTOM    AVERAGE
        STATION  ELEVATION    10-YEAR   100-YEAR                                                  SLOPE    A-ZONES
  AS    730.600      9.170      0.000      9.170      0.000      0.000      0.000      0.000     -0.054      0.000


            END        END  NEW SURGE  NEW SURGE                                                 BOTTOM    AVERAGE
        STATION  ELEVATION    10-YEAR   100-YEAR                                                  SLOPE    A-ZONES
  IF    732.000      9.094      0.000      9.170      0.000      0.000      0.000      0.000      0.000      0.000


            END        END  NEW SURGE  NEW SURGE                                                 BOTTOM    AVERAGE
        STATION  ELEVATION    10-YEAR   100-YEAR                                                  SLOPE    A-ZONES
  IF    735.200      9.170      0.000      9.170      0.000      0.000      0.000      0.000      0.023      0.000


            END        END  NEW SURGE  NEW SURGE                                                 BOTTOM    AVERAGE
        STATION  ELEVATION    10-YEAR   100-YEAR                                                  SLOPE    A-ZONES
  AS    753.700      9.170      0.000      9.170      0.000      0.000      0.000      0.000     -0.033      0.000


            END        END  NEW SURGE  NEW SURGE                                                 BOTTOM    AVERAGE
        STATION  ELEVATION    10-YEAR   100-YEAR                                                  SLOPE    A-ZONES
  IF    758.000      9.029      0.000      9.170      0.000      0.000      0.000      0.000      0.000      0.000


            END        END  NEW SURGE  NEW SURGE                                                 BOTTOM    AVERAGE
        STATION  ELEVATION    10-YEAR   100-YEAR                                                  SLOPE    A-ZONES
  IF    761.400      9.170      0.000      9.170      0.000      0.000      0.000      0.000      0.042      0.000


            END        END  NEW SURGE  NEW SURGE                                                 BOTTOM    AVERAGE
        STATION  ELEVATION    10-YEAR   100-YEAR                                                  SLOPE    A-ZONES
  AS    811.200      9.172      0.000      9.172      0.000      0.000      0.000      0.000     -0.097      0.000


            END        END  NEW SURGE  NEW SURGE                                                 BOTTOM    AVERAGE
        STATION  ELEVATION    10-YEAR   100-YEAR                                                  SLOPE    A-ZONES
  IF    812.000      9.094      0.000      9.172      0.000      0.000      0.000      0.000      0.000      0.000


            END        END  NEW SURGE  NEW SURGE                                                 BOTTOM    AVERAGE
        STATION  ELEVATION    10-YEAR   100-YEAR                                                  SLOPE    A-ZONES
  IF    815.200      9.172      0.000      9.172      0.000      0.000      0.000      0.000      0.024      0.000


            END        END  NEW SURGE  NEW SURGE                                                 BOTTOM    AVERAGE
        STATION  ELEVATION    10-YEAR   100-YEAR                                                  SLOPE    A-ZONES
  AS    831.800      9.173      0.000      9.173      0.000      0.000      0.000      0.000     -0.018      0.000


            END        END  NEW SURGE  NEW SURGE                                                 BOTTOM    AVERAGE
        STATION  ELEVATION    10-YEAR   100-YEAR                                                  SLOPE    A-ZONES
  IF    832.500      9.160      0.000      9.173      0.000      0.000      0.000      0.000      0.000      0.000


            END        END  NEW SURGE  NEW SURGE                                                 BOTTOM    AVERAGE
        STATION  ELEVATION    10-YEAR   100-YEAR                                                  SLOPE    A-ZONES
  IF    832.600      9.173      0.000      9.173      0.000      0.000      0.000      0.000      0.128      0.000


            END        END  NEW SURGE  NEW SURGE                                                 BOTTOM    AVERAGE
        STATION  ELEVATION    10-YEAR   100-YEAR                                                  SLOPE    A-ZONES
  AS    874.200      9.174      0.000      9.174      0.000      0.000      0.000      0.000     -0.059      0.000


            END        END  NEW SURGE  NEW SURGE                                                 BOTTOM    AVERAGE
        STATION  ELEVATION    10-YEAR   100-YEAR                                                  SLOPE    A-ZONES
  IF    875.000      9.127      0.000      9.174      0.000      0.000      0.000      0.000     -0.038      0.000


            END        END  NEW SURGE  NEW SURGE                                                 BOTTOM    AVERAGE
        STATION  ELEVATION    10-YEAR   100-YEAR                                                  SLOPE    A-ZONES
  IF    884.000      8.799      0.000      9.174      0.000      0.000      0.000      0.000      0.004      0.000


            END        END  NEW SURGE  NEW SURGE                                                 BOTTOM    AVERAGE
        STATION  ELEVATION    10-YEAR   100-YEAR                                                  SLOPE    A-ZONES
  IF    887.300      9.174      0.000      9.174      0.000      0.000      0.000      0.000      0.114      0.000


            END        END  NEW SURGE  NEW SURGE                                                 BOTTOM    AVERAGE
        STATION  ELEVATION    10-YEAR   100-YEAR                                                  SLOPE    A-ZONES
  AS    888.200      9.174      0.000      9.174      0.000      0.000      0.000      0.000     -0.026      0.000


            END        END  NEW SURGE  NEW SURGE                                                 BOTTOM    AVERAGE
        STATION  ELEVATION    10-YEAR   100-YEAR                                                  SLOPE    A-ZONES
  IF    895.000      8.996      0.000      9.174      0.000      0.000      0.000      0.000     -0.220      0.000


            END        END  NEW SURGE  NEW SURGE                                                 BOTTOM    AVERAGE
        STATION  ELEVATION    10-YEAR   100-YEAR                                                  SLOPE    A-ZONES
  IF    902.000      6.142      0.000      9.175      0.000      0.000      0.000      0.000     -0.008      0.000


            END        END  NEW SURGE  NEW SURGE                                                 BOTTOM    AVERAGE
        STATION  ELEVATION    10-YEAR   100-YEAR                                                  SLOPE    A-ZONES
  IF    907.500      8.898      0.000      9.175      0.000      0.000      0.000      0.000      0.026      0.000


            END        END  NEW SURGE  NEW SURGE                                                 BOTTOM    AVERAGE
        STATION  ELEVATION    10-YEAR   100-YEAR                                                  SLOPE    A-ZONES
  IF    917.000      6.535      0.000      9.175      0.000      0.000      0.000      0.000     -0.153      0.000


            END        END  NEW SURGE  NEW SURGE                                                 BOTTOM    AVERAGE
        STATION  ELEVATION    10-YEAR   100-YEAR                                                  SLOPE    A-ZONES
  IF    924.500      6.306      0.000      9.175      0.000      0.000      0.000      0.000      0.058      0.000


            END        END  NEW SURGE  NEW SURGE                                                 BOTTOM    AVERAGE
        STATION  ELEVATION    10-YEAR   100-YEAR                                                  SLOPE    A-ZONES
  IF    929.500      7.257      0.000      9.175      0.000      0.000      0.000      0.000     -0.021      0.000


            END        END  NEW SURGE  NEW SURGE                                                 BOTTOM    AVERAGE
        STATION  ELEVATION    10-YEAR   100-YEAR                                                  SLOPE    A-ZONES
  IF    937.000      6.043      0.000      9.175      0.000      0.000      0.000      0.000     -0.147      0.000


            END        END  NEW SURGE  NEW SURGE                                                 BOTTOM    AVERAGE
        STATION  ELEVATION    10-YEAR   100-YEAR                                                  SLOPE    A-ZONES
  IF    942.000      5.420      0.000      9.175      0.000      0.000      0.000      0.000     -0.025      0.000


            END        END  NEW SURGE  NEW SURGE                                                 BOTTOM    AVERAGE
        STATION  ELEVATION    10-YEAR   100-YEAR                                                  SLOPE    A-ZONES
  IF    950.000      5.715      0.000      9.175      0.000      0.000      0.000      0.000      0.023      0.000


            END        END  NEW SURGE  NEW SURGE                                                 BOTTOM    AVERAGE
        STATION  ELEVATION    10-YEAR   100-YEAR                                                  SLOPE    A-ZONES
  IF    963.500      5.912      0.000      9.175      0.000      0.000      0.000      0.000      0.108      0.000


            END        END  NEW SURGE  NEW SURGE                                                 BOTTOM    AVERAGE
        STATION  ELEVATION    10-YEAR   100-YEAR                                                  SLOPE    A-ZONES
  IF    972.500      8.143      0.000      9.175      0.000      0.000      0.000      0.000      0.023      0.000


            END        END  NEW SURGE  NEW SURGE                                                 BOTTOM    AVERAGE
        STATION  ELEVATION    10-YEAR   100-YEAR                                                  SLOPE    A-ZONES
  IF    979.000      6.273      0.000      9.175      0.000      0.000      0.000      0.000     -0.133      0.000


            END        END  NEW SURGE  NEW SURGE                                                 BOTTOM    AVERAGE
        STATION  ELEVATION    10-YEAR   100-YEAR                                                  SLOPE    A-ZONES
  IF    990.000      5.814      0.000      9.175      0.000      0.000      0.000      0.000     -0.028      0.000


            END        END  NEW SURGE  NEW SURGE                                                 BOTTOM    AVERAGE
        STATION  ELEVATION    10-YEAR   100-YEAR                                                  SLOPE    A-ZONES
  IF   1001.000      5.650      0.000      9.175      0.000      0.000      0.000      0.000      0.029      0.000


            END        END  NEW SURGE  NEW SURGE                                                 BOTTOM    AVERAGE
        STATION  ELEVATION    10-YEAR   100-YEAR                                                  SLOPE    A-ZONES
  IF   1008.000      6.339      0.000      9.175      0.000      0.000      0.000      0.000      0.068      0.000


            END        END  NEW SURGE  NEW SURGE                                                 BOTTOM    AVERAGE
        STATION  ELEVATION    10-YEAR   100-YEAR                                                  SLOPE    A-ZONES
  IF   1015.000      6.601      0.000      9.175      0.000      0.000      0.000      0.000      0.157      0.000


            END        END  NEW SURGE  NEW SURGE                                                 BOTTOM    AVERAGE
        STATION  ELEVATION    10-YEAR   100-YEAR                                                  SLOPE    A-ZONES
  IF   1023.500      8.766      0.000      9.175      0.000      0.000      0.000      0.000      0.201      0.000


            END        END  NEW SURGE  NEW SURGE                                                 BOTTOM    AVERAGE
        STATION  ELEVATION    10-YEAR   100-YEAR                                                  SLOPE    A-ZONES
  IF   1027.800      9.175      0.000      9.175      0.000      0.000      0.000      0.000      0.095      0.000


            END        END  NEW SURGE  NEW SURGE                                                 BOTTOM    AVERAGE
        STATION  ELEVATION    10-YEAR   100-YEAR                                                  SLOPE    A-ZONES
  AS   1097.200      9.504      0.000      9.504      0.000      0.000      0.000      0.000     -0.278      0.000


            END        END  NEW SURGE  NEW SURGE                                                 BOTTOM    AVERAGE
        STATION  ELEVATION    10-YEAR   100-YEAR                                                  SLOPE    A-ZONES
  IF   1099.500      8.865      0.000      9.504      0.000      0.000      0.000      0.000     -0.140      0.000


            END        END  NEW SURGE  NEW SURGE                                                 BOTTOM    AVERAGE
        STATION  ELEVATION    10-YEAR   100-YEAR                                                  SLOPE    A-ZONES
  IF   1109.000      7.848      0.000      9.504      0.000      0.000      0.000      0.000     -0.051      0.000


            END        END  NEW SURGE  NEW SURGE                                                 BOTTOM    AVERAGE
        STATION  ELEVATION    10-YEAR   100-YEAR                                                  SLOPE    A-ZONES
  IF   1122.000      7.716      0.000      9.504      0.000      0.000      0.000      0.000      0.051      0.000


            END        END  NEW SURGE  NEW SURGE                                                 BOTTOM    AVERAGE
        STATION  ELEVATION    10-YEAR   100-YEAR                                                  SLOPE    A-ZONES
  IF   1135.000      9.160      0.000      9.504      0.000      0.000      0.000      0.000      0.075      0.000


            END        END  NEW SURGE  NEW SURGE                                                 BOTTOM    AVERAGE
        STATION  ELEVATION    10-YEAR   100-YEAR                                                  SLOPE    A-ZONES
  IF   1143.500      9.324      0.000      9.504      0.000      0.000      0.000      0.000      0.003      0.000


            END        END  NEW SURGE  NEW SURGE                                                 BOTTOM    AVERAGE
        STATION  ELEVATION    10-YEAR   100-YEAR                                                  SLOPE    A-ZONES
  IF   1157.500      9.226      0.000      9.504      0.000      0.000      0.000      0.000      0.008      0.000


            END        END  NEW SURGE  NEW SURGE                                                 BOTTOM    AVERAGE
        STATION  ELEVATION    10-YEAR   100-YEAR                                                  SLOPE    A-ZONES
  IF   1166.900      9.504      0.000      9.504      0.000      0.000      0.000      0.000      0.030      0.000


            END        END  NEW SURGE  NEW SURGE                                                 BOTTOM    AVERAGE
        STATION  ELEVATION    10-YEAR   100-YEAR                                                  SLOPE    A-ZONES
  AS   1309.600      9.504      0.000      9.504      0.000      0.000      0.000      0.000     -0.162      0.000


            END        END  NEW SURGE  NEW SURGE                                                 BOTTOM    AVERAGE
        STATION  ELEVATION    10-YEAR   100-YEAR                                                  SLOPE    A-ZONES
  IF   1315.000      8.632      0.000      9.504      0.000      0.000      0.000      0.000     -0.037      0.000


            END        END  NEW SURGE  NEW SURGE                                                 BOTTOM    AVERAGE
        STATION  ELEVATION    10-YEAR   100-YEAR                                                  SLOPE    A-ZONES
  IF   1322.500      9.026      0.000      9.504      0.000      0.000      0.000      0.000     -0.018      0.000


            END        END  NEW SURGE  NEW SURGE                                                 BOTTOM    AVERAGE
        STATION  ELEVATION    10-YEAR   100-YEAR                                                  SLOPE    A-ZONES
  IF   1335.000      8.274      0.000      9.504      0.000      0.000      0.000      0.000     -0.042      0.000


            END        END  NEW SURGE  NEW SURGE                                                 BOTTOM    AVERAGE
        STATION  ELEVATION    10-YEAR   100-YEAR                                                  SLOPE    A-ZONES
  IF   1346.000      8.045      0.000      9.504      0.000      0.000      0.000      0.000     -0.079      0.000


            END        END  NEW SURGE  NEW SURGE                                                 BOTTOM    AVERAGE
        STATION  ELEVATION    10-YEAR   100-YEAR                                                  SLOPE    A-ZONES
  IF   1359.000      6.368      0.000      9.504      0.000      0.000      0.000      0.000     -0.073      0.000


            END        END  NEW SURGE  NEW SURGE                                                 BOTTOM    AVERAGE
        STATION  ELEVATION    10-YEAR   100-YEAR                                                  SLOPE    A-ZONES
  IF   1368.500      6.404      0.000      9.504      0.000      0.000      0.000      0.000      0.033      0.000


            END        END  NEW SURGE  NEW SURGE                                                 BOTTOM    AVERAGE
        STATION  ELEVATION    10-YEAR   100-YEAR                                                  SLOPE    A-ZONES
  IF   1379.000      7.028      0.000      9.504      0.000      0.000      0.000      0.000      0.032      0.000


            END        END  NEW SURGE  NEW SURGE                                                 BOTTOM    AVERAGE
        STATION  ELEVATION    10-YEAR   100-YEAR                                                  SLOPE    A-ZONES
  IF   1390.000      7.093      0.000      9.504      0.000      0.000      0.000      0.000      0.040      0.000


            END        END  NEW SURGE  NEW SURGE                                                 BOTTOM    AVERAGE
        STATION  ELEVATION    10-YEAR   100-YEAR                                                  SLOPE    A-ZONES
[...]

                                         55.80                 1.00                 9.40

                                         59.10                 1.00                 9.40

                                         62.30                 1.00                 9.41

                                         65.60                 1.00                 9.42

                                         68.90                 1.00                 9.43

                                         72.20                 1.00                 9.44

                                         75.50                 1.00                 9.44

                                         78.70                 1.00                 9.45

                                         82.00                 1.00                 9.45

                                         85.30                 1.00                 9.45

                                         88.60                 1.00                 9.45

                                         91.90                 1.00                 9.45

                                         95.10                 1.00                 9.45

                                         98.40                 1.00                 9.45

                                        101.70                 1.00                 9.45

                                        105.00                 1.00                 9.45

                                        108.30                 1.00                 9.46

                                        111.50                 1.00                 9.47

                                        114.80                 1.00                 9.48

                                        118.10                 1.00                 9.49

                                        121.40                 1.00                 9.49

                                        124.70                 1.00                 9.50

                                        128.00                 1.00                 9.52

                                        131.20                 1.00                 9.54

                                        134.50                 1.00                 9.56

                                        137.80                 1.00                 9.58

                                        141.10                 1.00                 9.60

                                        144.40                 1.00                 9.64

                                        147.60                 1.00                 9.67

                                        150.90                 1.00                 9.70

                                        154.20                 1.00                 9.72

                                        157.50                 1.00                 9.77

                                        160.80                 1.00                 9.91

                                        164.00                 1.00                10.03

                                        167.30                 1.00                10.12

                                        170.60                 1.00                10.21

                                        173.90                 1.00                10.27

                                        177.20                 1.00                10.31

                                        180.40                 1.00                10.32

                                        183.70                 1.00                10.34

                                        187.00                 1.00                10.36

                                        190.30                 1.00                10.39

                                        193.60                 1.00                10.43

                                        439.40                 1.00                 9.17

                                        638.50                 1.00                 9.17

                                        811.20                 1.00                 9.17

                                        831.80                 1.00                 9.17

                                        874.20                 1.00                 9.17

                                        902.00                 1.00                 9.18

                                       1097.20                 1.00                 9.50



                                                       PART5  LOCATION OF V ZONES

                                             STATION OF GUTTER          LOCATION OF ZONE

                                                      148.30               WINDWARD



                                                   PART6 NUMBERED A ZONES AND V ZONES

                                        STATION OF GUTTER  ELEVATION  ZONE DESIGNATION   FHF


                                               0.00          15.25

                                                                          V23  EL=15     130

                                               1.00          15.24

                                                                          V23  EL=15     130

                                               2.00          15.23

                                                                          V23  EL=15     130

                                               3.30          15.22

                                                                          V23  EL=15     130

                                               6.60          15.20

                                                                          V23  EL=15     130

                                               9.80          15.17

                                                                          V23  EL=15     130

                                              13.10          15.14

                                                                          V23  EL=15     130

                                              16.40          15.12

                                                                          V23  EL=15     130

                                              19.70          15.09

                                                                          V23  EL=15     130

                                              23.00          15.06

                                                                          V23  EL=15     130

                                              26.20          15.04

                                                                          V23  EL=15     130

                                              29.50          14.98

                                                                          V23  EL=15     130

                                              32.80          14.93

                                                                          V23  EL=15     130

                                              36.10          14.88

                                                                          V23  EL=15     130

                                              39.40          14.82

                                                                          V23  EL=15     130

                                              42.70          14.77

                                                                          V23  EL=15     130

                                              45.90          14.71

                                                                          V23  EL=15     130

                                              49.20          14.66

                                                                          V23  EL=15     130

                                              52.50          14.61

                                                                          V23  EL=15     130

                                              55.80          14.56

                                                                          V23  EL=15     130

                                              59.10          14.52

                                                                          V23  EL=15     130

                                              60.76          14.50

                                                                          V23  EL=14     130

                                              62.30          14.48

                                                                          V23  EL=14     130

                                              63.32          14.50

                                                                          V23  EL=15     130

                                              65.60          14.54

                                                                          V23  EL=15     130

                                              68.90          14.62

                                                                          V23  EL=15     130

                                              72.20          14.65

                                                                          V23  EL=15     130

                                              75.50          14.66

                                                                          V23  EL=15     130

                                              78.70          14.67

                                                                          V23  EL=15     130

                                              82.00          14.66

                                                                          V23  EL=15     130

                                              85.30          14.66

                                                                          V23  EL=15     130

                                              88.60          14.63

                                                                          V23  EL=15     130

                                              91.90          14.57

                                                                          V23  EL=15     130

                                              93.39          14.50

                                                                          V23  EL=14     130

                                              95.10          14.42

                                                                          V23  EL=14     130

                                              98.40          14.16

                                                                          V23  EL=14     130

                                             101.70          13.94

                                                                          V23  EL=14     130

                                             105.00          13.76

                                                                          V23  EL=14     130

                                             108.30          13.58

                                                                          V23  EL=14     130

                                             110.03          13.50

                                                                          V23  EL=13     130

                                             111.50          13.43

                                                                          V23  EL=13     130

                                             114.80          13.33

                                                                          V23  EL=13     130

                                             118.10          13.21

                                                                          V23  EL=13     130

                                             121.40          12.95

                                                                          V23  EL=13     130

                                             124.70          12.69

                                                                          V23  EL=13     130

                                             128.00          12.59

                                                                          V23  EL=13     130

                                             130.77          12.50

                                                                          V23  EL=12     130

                                             131.20          12.49

                                                                          V23  EL=12     130

                                             134.50          12.33

                                                                          V23  EL=12     130

                                             137.80          12.10

                                                                          V23  EL=12     130

                                             141.10          11.89

                                                                          V23  EL=12     130

                                             144.40          11.85

                                                                          V23  EL=12     130

                                             147.60          11.80

                                                                          V23  EL=12     130

                                             148.30          11.79

                                                                          A17  EL=12      85

                                             150.90          11.69

                                                                          A17  EL=12      85

                                             153.21          11.50

                                                                          A17  EL=11      85

                                             154.20          11.42

                                                                          A17  EL=11      85

                                             157.50          11.20

                                                                          A17  EL=11      85

                                             160.80          11.12

                                                                          A17  EL=11      85

                                             164.00          11.07

                                                                          A17  EL=11      85

                                             167.30          11.03

                                                                          A17  EL=11      85

                                             170.60          11.00

                                                                          A17  EL=11      85

                                             173.90          11.08

                                                                          A17  EL=11      85

                                             177.20          11.13

                                                                          A17  EL=11      85

                                             180.40          11.12

                                                                          A17  EL=11      85

                                             183.70          11.01

                                                                          A17  EL=11      85

                                             187.00          10.93

                                                                          A17  EL=11      85

                                             190.30          10.89

                                                                          A17  EL=11      85

                                             193.60          10.87

                                                                          A17  EL=11      85

                                             221.06          10.50

                                                                          A17  EL=10      85

                                             221.70          10.44


                                             439.40           9.17

                                                                          A17  EL= 9      85

                                             453.50           9.18


                                             458.60           9.17

                                                                          A17  EL= 9      85

                                             625.00           9.29

                                                                          A17  EL= 9      85

                                             638.50           9.31

                                                                          A17  EL= 9      85

                                             705.80           9.18


                                             711.50           9.17

                                                                          A17  EL= 9      85

                                             719.40           9.18


                                             730.60           9.17

                                                                          A17  EL= 9      85

                                             735.20           9.18


                                             753.70           9.17

                                                                          A17  EL= 9      85

                                             761.40           9.18


                                             811.20           9.17

                                                                          A17  EL= 9      85

                                             815.20           9.18


                                             831.80           9.17

                                                                          A17  EL= 9      85

                                             832.60           9.18


                                             874.20           9.17

                                                                          A17  EL= 9      85

                                             887.30           9.18


                                             888.20           9.17

                                                                          A17  EL= 9      85

                                             895.00           9.21

                                                                          A17  EL= 9      85

                                             902.00           9.23

                                                                          A17  EL= 9      85

                                            1027.80           9.18


                                            1097.20           9.50

                                                                          A17  EL=10      85

                                            1166.90           9.51


                                            1309.60           9.50

                                                                          A17  EL=10      85

                                            1481.80           9.51



                                                  ZONE TERMINATED AT END OF TRANSECT



                                                  PART 7   POSTSCRIPT NOTES


                         PS#  1   START(389315.4377,4810107.5632)                                              
                         PS#  2   END(388593.6637,4810609.2488)                                                
