 WAVE HEIGHT COMPUTATIONS FOR FLOOD INSURANCE STUDIES (WHAFIS VERSION 4.0G, 08_2007)
 Executed on: Mon May 11 15:31:26 2020
 Input file:  C:\FEMA-TransectAnalysis\LOMR-TransectAnalysis-Biddeford\3_whafis\whafis4\YK-127.dat                                            
 Output file: C:\FEMA-TransectAnalysis\LOMR-TransectAnalysis-Biddeford\3_whafis\whafis4\YK-127.out                                            



                                                              header                                                                
                                                     THIS IS A 100-YEAR CASE


                                       THE FOLLOWING NON-DEFAULT WIND SPEEDS ARE BEING USED
                                            WINDIF  56.14  WINDOF  56.14  WINDVH  60.00

                                                             PART1 INPUT

          IE      0.000     -1.709      1.000      1.000      9.223      8.051     10.530     56.140      0.006      0.000
          OF      3.300     -1.690      0.000      9.223      0.000      0.000      0.000      0.000      0.006      0.000
          OF      6.600     -1.672      0.000      9.223      0.000      0.000      0.000      0.000      0.006      0.000
          OF      9.800     -1.653      0.000      9.224      0.000      0.000      0.000      0.000      0.006      0.000
          OF     13.100     -1.635      0.000      9.224      0.000      0.000      0.000      0.000      0.006      0.000
          OF     16.400     -1.617      0.000      9.224      0.000      0.000      0.000      0.000      0.017      0.000
          OF     19.700     -1.525      0.000      9.224      0.000      0.000      0.000      0.000      0.030      0.000
          OF     52.500     -0.538      0.000      9.225      0.000      0.000      0.000      0.000      0.021      0.000
          OF     55.800     -0.757      0.000      9.228      0.000      0.000      0.000      0.000     -0.066      0.000
          OF     59.100     -0.975      0.000      9.231      0.000      0.000      0.000      0.000     -0.067      0.000
          OF     62.300     -1.194      0.000      9.233      0.000      0.000      0.000      0.000     -0.063      0.000
          OF     65.600     -1.386      0.000      9.235      0.000      0.000      0.000      0.000     -0.041      0.000
          OF     68.900     -1.463      0.000      9.236      0.000      0.000      0.000      0.000     -0.022      0.000
          OF     72.200     -1.532      0.000      9.237      0.000      0.000      0.000      0.000     -0.002      0.000
          OF     75.500     -1.474      0.000      9.238      0.000      0.000      0.000      0.000      0.017      0.000
          OF     78.700     -1.423      0.000      9.238      0.000      0.000      0.000      0.000      0.013      0.000
          OF     82.000     -1.388      0.000      9.238      0.000      0.000      0.000      0.000      0.011      0.000
          OF     85.300     -1.352      0.000      9.238      0.000      0.000      0.000      0.000      0.011      0.000
          OF     88.600     -1.316      0.000      9.239      0.000      0.000      0.000      0.000      0.040      0.000
          OF     91.900     -1.086      0.000      9.238      0.000      0.000      0.000      0.000      0.082      0.000
          OF     95.100     -0.781      0.000      9.236      0.000      0.000      0.000      0.000      0.094      0.000
          OF     98.400     -0.476      0.000      9.235      0.000      0.000      0.000      0.000      0.093      0.000
          OF    101.700     -0.168      0.000      9.233      0.000      0.000      0.000      0.000      0.101      0.000
          IF    105.000      0.194      0.000      9.231      0.000      0.000      0.000      0.000      0.110      0.000
          IF    108.300      0.556      0.000      9.229      0.000      0.000      0.000      0.000      0.111      0.000
          IF    111.500      0.917      0.000      9.228      0.000      0.000      0.000      0.000      0.137      0.000
          IF    114.800      1.443      0.000      9.225      0.000      0.000      0.000      0.000      0.226      0.000
          IF    128.000      4.647      0.000      9.244      0.000      0.000      0.000      0.000      0.215      0.000
          IF    131.200      4.963      0.000      9.277      0.000      0.000      0.000      0.000      0.115      0.000
          IF    134.500      5.394      0.000      9.306      0.000      0.000      0.000      0.000      0.141      0.000
          IF    137.800      5.896      0.000      9.333      0.000      0.000      0.000      0.000      0.208      0.000
          IF    141.100      6.765      0.000      9.371      0.000      0.000      0.000      0.000      0.258      0.000
          IF    144.400      7.599      0.000      9.585      0.000      0.000      0.000      0.000      0.238      0.000
          IF    147.600      8.310      0.000      9.768      0.000      0.000      0.000      0.000      0.146      0.000
          IF    150.900      8.545      0.000      9.880      0.000      0.000      0.000      0.000      0.076      0.000
          IF    154.200      8.812      0.000      9.945      0.000      0.000      0.000      0.000      0.102      0.000
          IF    157.500      9.216      0.000     10.007      0.000      0.000      0.000      0.000      0.145      0.000
          IF    160.800      9.769      0.000     10.158      0.000      0.000      0.000      0.000      0.162      0.000
          IF    163.300     10.158      0.000     10.158      0.000      0.000      0.000      0.000      0.155      0.000
          AS    664.200      9.159      0.000      9.159      0.000      0.000      0.000      0.000     -0.048      0.000
          IF    665.000      9.121      0.000      9.159      0.000      0.000      0.000      0.000      0.000      0.000
          IF    665.600      9.159      0.000      9.159      0.000      0.000      0.000      0.000      0.064      0.000
          AS    688.300      9.159      0.000      9.159      0.000      0.000      0.000      0.000     -0.040      0.000
          IF    690.000      9.091      0.000      9.159      0.000      0.000      0.000      0.000     -0.094      0.000
          IF    695.000      8.530      0.000      9.159      0.000      0.000      0.000      0.000     -0.087      0.000
          IF    702.500      8.005      0.000      9.159      0.000      0.000      0.000      0.000     -0.066      0.000
          IF    707.500      7.710      0.000      9.159      0.000      0.000      0.000      0.000     -0.062      0.000
          IF    712.000      7.415      0.000      9.159      0.000      0.000      0.000      0.000     -0.011      0.000
          IF    719.500      7.579      0.000      9.159      0.000      0.000      0.000      0.000      0.036      0.000
          IF    725.000      7.877      0.000      9.159      0.000      0.000      0.000      0.000     -0.200      0.000
          IF    728.500      5.774      0.000      9.159      0.000      0.000      0.000      0.000     -0.259      0.000
          IF    734.000      5.545      0.000      9.159      0.000      0.000      0.000      0.000     -0.054      0.000
          IF    737.000      5.315      0.000      9.159      0.000      0.000      0.000      0.000     -0.042      0.000
          IF    741.000      5.249      0.000      9.159      0.000      0.000      0.000      0.000      0.095      0.000
          IF    746.000      6.171      0.000      9.159      0.000      0.000      0.000      0.000      0.005      0.000
          IF    753.000      5.315      0.000      9.160      0.000      0.000      0.000      0.000      0.008      0.000
          IF    759.000      6.270      0.000      9.160      0.000      0.000      0.000      0.000     -0.132      0.000
          OF    834.000     -5.363      0.000      9.161      0.000      0.000      0.000      0.000     -0.154      0.000
          OF    835.000     -5.468      0.000      9.161      0.000      0.000      0.000      0.000     -0.069      0.000
          OF    838.000     -5.637      0.000      9.161      0.000      0.000      0.000      0.000     -0.042      0.000
          OF    839.000     -5.637      0.000      9.161      0.000      0.000      0.000      0.000      0.000      0.000
          OF    841.000     -5.637      0.000      9.161      0.000      0.000      0.000      0.000      0.000      0.000
          OF    842.000     -5.637      0.000      9.161      0.000      0.000      0.000      0.000      0.000      0.000
          OF    844.000     -5.637      0.000      9.161      0.000      0.000      0.000      0.000      0.000      0.000
          OF    845.000     -5.637      0.000      9.161      0.000      0.000      0.000      0.000      0.000      0.000
          OF    847.000     -5.636      0.000      9.161      0.000      0.000      0.000      0.000      0.000      0.000
          OF    848.000     -5.636      0.000      9.161      0.000      0.000      0.000      0.000      0.000      0.000
          OF    850.000     -5.636      0.000      9.161      0.000      0.000      0.000      0.000      0.000      0.000
          OF    851.000     -5.636      0.000      9.161      0.000      0.000      0.000      0.000      0.000      0.000
          OF    853.000     -5.636      0.000      9.161      0.000      0.000      0.000      0.000      0.000      0.000
          OF    854.000     -5.636      0.000      9.161      0.000      0.000      0.000      0.000      0.000      0.000
          OF    856.000     -5.636      0.000      9.161      0.000      0.000      0.000      0.000      0.000      0.000
          OF    857.000     -5.635      0.000      9.162      0.000      0.000      0.000      0.000      0.000      0.000
          OF    859.000     -5.635      0.000      9.162      0.000      0.000      0.000      0.000      0.000      0.000
          OF    860.000     -5.635      0.000      9.162      0.000      0.000      0.000      0.000      0.000      0.000
          OF    862.000     -5.635      0.000      9.162      0.000      0.000      0.000      0.000      0.000      0.000
          OF    863.000     -5.635      0.000      9.162      0.000      0.000      0.000      0.000      0.000      0.000
          OF    865.000     -5.635      0.000      9.162      0.000      0.000      0.000      0.000      0.000      0.000
          OF    866.000     -5.635      0.000      9.162      0.000      0.000      0.000      0.000      0.000      0.000
          OF    868.000     -5.635      0.000      9.162      0.000      0.000      0.000      0.000      0.000      0.000
          OF    869.000     -5.635      0.000      9.162      0.000      0.000      0.000      0.000      0.000      0.000
          OF    871.000     -5.634      0.000      9.162      0.000      0.000      0.000      0.000      0.000      0.000
          OF    872.000     -5.634      0.000      9.162      0.000      0.000      0.000      0.000      0.000      0.000
          OF    874.000     -5.634      0.000      9.162      0.000      0.000      0.000      0.000      0.000      0.000
          OF    875.000     -5.634      0.000      9.162      0.000      0.000      0.000      0.000      0.000      0.000
          OF    877.000     -5.634      0.000      9.162      0.000      0.000      0.000      0.000      0.000      0.000
          OF    878.000     -5.634      0.000      9.162      0.000      0.000      0.000      0.000      0.000      0.000
          OF    880.000     -5.634      0.000      9.162      0.000      0.000      0.000      0.000      0.000      0.000
          OF    881.000     -5.634      0.000      9.162      0.000      0.000      0.000      0.000      0.000      0.000
          OF    883.000     -5.633      0.000      9.162      0.000      0.000      0.000      0.000      0.000      0.000
          OF    884.000     -5.633      0.000      9.162      0.000      0.000      0.000      0.000      0.000      0.000
          OF    886.000     -5.633      0.000      9.162      0.000      0.000      0.000      0.000      0.000      0.000
          OF    887.000     -5.633      0.000      9.163      0.000      0.000      0.000      0.000      0.000      0.000
          OF    889.000     -5.633      0.000      9.163      0.000      0.000      0.000      0.000      0.000      0.000
          OF    890.000     -5.633      0.000      9.163      0.000      0.000      0.000      0.000      0.000      0.000
          OF    892.000     -5.633      0.000      9.163      0.000      0.000      0.000      0.000      0.000      0.000
          OF    893.000     -5.632      0.000      9.163      0.000      0.000      0.000      0.000      0.000      0.000
          OF    895.000     -5.632      0.000      9.163      0.000      0.000      0.000      0.000      0.000      0.000
          OF    896.000     -5.632      0.000      9.163      0.000      0.000      0.000      0.000      0.000      0.000
          OF    899.000     -5.632      0.000      9.163      0.000      0.000      0.000      0.000      0.000      0.000
          OF    901.000     -5.632      0.000      9.163      0.000      0.000      0.000      0.000      0.000      0.000
          OF    902.000     -5.632      0.000      9.163      0.000      0.000      0.000      0.000      0.000      0.000
          OF    907.000     -5.631      0.000      9.163      0.000      0.000      0.000      0.000      0.000      0.000
          OF    908.000     -5.631      0.000      9.163      0.000      0.000      0.000      0.000      0.000      0.000
          OF    913.000     -5.631      0.000      9.163      0.000      0.000      0.000      0.000      0.000      0.000
          OF    914.000     -5.631      0.000      9.163      0.000      0.000      0.000      0.000      0.000      0.000
          OF    919.000     -5.630      0.000      9.163      0.000      0.000      0.000      0.000      0.000      0.000
          OF    920.000     -5.630      0.000      9.163      0.000      0.000      0.000      0.000      0.000      0.000
          OF    925.000     -5.630      0.000      9.164      0.000      0.000      0.000      0.000      0.000      0.000
          OF    926.000     -5.630      0.000      9.164      0.000      0.000      0.000      0.000      0.000      0.000
          OF    931.000     -5.629      0.000      9.164      0.000      0.000      0.000      0.000      0.000      0.000
          OF    932.000     -5.629      0.000      9.164      0.000      0.000      0.000      0.000      0.000      0.000
          OF    937.000     -5.629      0.000      9.164      0.000      0.000      0.000      0.000      0.000      0.000
          OF    938.000     -5.628      0.000      9.164      0.000      0.000      0.000      0.000      0.000      0.000
          OF    943.000     -5.628      0.000      9.164      0.000      0.000      0.000      0.000      0.000      0.000
          OF    944.000     -5.628      0.000      9.164      0.000      0.000      0.000      0.000      0.000      0.000
          OF    949.000     -5.628      0.000      9.164      0.000      0.000      0.000      0.000      0.000      0.000
          OF    950.000     -5.627      0.000      9.164      0.000      0.000      0.000      0.000      0.000      0.000
          OF    955.000     -5.627      0.000      9.164      0.000      0.000      0.000      0.000      0.000      0.000
          OF    956.000     -5.627      0.000      9.164      0.000      0.000      0.000      0.000      0.000      0.000
          OF    961.000     -5.626      0.000      9.164      0.000      0.000      0.000      0.000      0.000      0.000
          OF    962.000     -5.626      0.000      9.164      0.000      0.000      0.000      0.000      0.000      0.000
          OF    967.000     -5.626      0.000      9.164      0.000      0.000      0.000      0.000      0.000      0.000
          OF    968.000     -5.626      0.000      9.164      0.000      0.000      0.000      0.000      0.000      0.000
          OF    973.000     -5.625      0.000      9.165      0.000      0.000      0.000      0.000      0.000      0.000
          OF    974.000     -5.625      0.000      9.165      0.000      0.000      0.000      0.000      0.000      0.000
          OF    979.000     -5.625      0.000      9.165      0.000      0.000      0.000      0.000      0.000      0.000
          OF    980.000     -5.624      0.000      9.165      0.000      0.000      0.000      0.000      0.000      0.000
          OF    985.000     -5.624      0.000      9.165      0.000      0.000      0.000      0.000      0.000      0.000
          OF    986.000     -5.624      0.000      9.165      0.000      0.000      0.000      0.000      0.000      0.000
          OF    991.000     -5.623      0.000      9.165      0.000      0.000      0.000      0.000      0.000      0.000
          OF    992.000     -5.623      0.000      9.165      0.000      0.000      0.000      0.000      0.000      0.000
          OF    997.000     -5.623      0.000      9.165      0.000      0.000      0.000      0.000      0.000      0.000
          OF    998.000     -5.623      0.000      9.165      0.000      0.000      0.000      0.000      0.000      0.000
          OF   1003.000     -5.622      0.000      9.165      0.000      0.000      0.000      0.000      0.000      0.000
          OF   1004.000     -5.622      0.000      9.165      0.000      0.000      0.000      0.000      0.000      0.000
          OF   1009.000     -5.622      0.000      9.165      0.000      0.000      0.000      0.000      0.000      0.000
          OF   1010.000     -5.622      0.000      9.165      0.000      0.000      0.000      0.000      0.000      0.000
          OF   1015.000     -5.621      0.000      9.165      0.000      0.000      0.000      0.000      0.000      0.000
          OF   1016.000     -5.621      0.000      9.165      0.000      0.000      0.000      0.000      0.000      0.000
          OF   1021.000     -5.621      0.000      9.165      0.000      0.000      0.000      0.000      0.000      0.000
          OF   1022.000     -5.621      0.000      9.165      0.000      0.000      0.000      0.000      0.000      0.000
          OF   1027.000     -5.620      0.000      9.165      0.000      0.000      0.000      0.000      0.000      0.000
          OF   1028.000     -5.620      0.000      9.165      0.000      0.000      0.000      0.000      0.000      0.000
          OF   1033.000     -5.620      0.000      9.165      0.000      0.000      0.000      0.000      0.000      0.000
          OF   1034.000     -5.619      0.000      9.165      0.000      0.000      0.000      0.000      0.013      0.000
          OF   1039.000     -5.541      0.000      9.165      0.000      0.000      0.000      0.000      0.017      0.000
          OF   1040.000     -5.518      0.000      9.165      0.000      0.000      0.000      0.000      0.023      0.000
          OF   1045.000     -5.403      0.000      9.166      0.000      0.000      0.000      0.000      0.023      0.000
          OF   1046.000     -5.379      0.000      9.166      0.000      0.000      0.000      0.000      0.036      0.000
          OF   1051.000     -5.188      0.000      9.166      0.000      0.000      0.000      0.000      0.042      0.000
          OF   1052.000     -5.127      0.000      9.166      0.000      0.000      0.000      0.000      0.062      0.000
          OF   1057.000     -4.819      0.000      9.166      0.000      0.000      0.000      0.000      0.062      0.000
          OF   1058.000     -4.758      0.000      9.166      0.000      0.000      0.000      0.000      0.077      0.000
          OF   1063.000     -4.355      0.000      9.166      0.000      0.000      0.000      0.000      0.082      0.000
          OF   1064.000     -4.264      0.000      9.166      0.000      0.000      0.000      0.000      0.090      0.000
          OF   1069.000     -3.812      0.000      9.166      0.000      0.000      0.000      0.000      0.090      0.000
          OF   1070.000     -3.721      0.000      9.166      0.000      0.000      0.000      0.000      0.091      0.000
          OF   1081.000     -2.725      0.000      9.167      0.000      0.000      0.000      0.000      0.091      0.000
          OF   1111.000     -0.008      0.000      9.168      0.000      0.000      0.000      0.000      0.174      0.000
          IF   1120.000      4.068      0.000      9.168      0.000      0.000      0.000      0.000      0.349      0.000
          IF   1125.500      5.052      0.000      9.168      0.000      0.000      0.000      0.000      0.156      0.000
          IF   1128.000      5.318      0.000      9.168      0.000      0.000      0.000      0.000      0.071      0.000
          IF   1131.500      5.479      0.000      9.168      0.000      0.000      0.000      0.000      0.000      0.000
          IF   1135.000      5.318      0.000      9.168      0.000      0.000      0.000      0.000      0.000      0.000
          IF   1139.500      5.479      0.000      9.169      0.000      0.000      0.000      0.000      0.025      0.000
          IF   1144.000      5.545      0.000      9.169      0.000      0.000      0.000      0.000      0.000      0.000
          IF   1148.000      5.479      0.000      9.169      0.000      0.000      0.000      0.000     -0.008      0.000
          IF   1160.000      5.413      0.000      9.169      0.000      0.000      0.000      0.000      0.000      0.000
          IF   1166.500      5.479      0.000      9.170      0.000      0.000      0.000      0.000      0.019      0.000
          IF   1172.000      5.643      0.000      9.170      0.000      0.000      0.000      0.000      0.006      0.000
          IF   1177.000      5.545      0.000      9.170      0.000      0.000      0.000      0.000      0.000      0.000
          IF   1185.500      5.643      0.000      9.170      0.000      0.000      0.000      0.000      0.008      0.000
          IF   1196.500      5.709      0.000      9.171      0.000      0.000      0.000      0.000     -0.006      0.000
          IF   1203.000      5.545      0.000      9.171      0.000      0.000      0.000      0.000     -0.023      0.000
          IF   1209.000      5.420      0.000      9.171      0.000      0.000      0.000      0.000      0.004      0.000
          IF   1212.000      5.581      0.000      9.171      0.000      0.000      0.000      0.000      0.036      0.000
          IF   1217.000      5.709      0.000      9.172      0.000      0.000      0.000      0.000     -0.010      0.000
          IF   1222.000      5.479      0.000      9.172      0.000      0.000      0.000      0.000     -0.013      0.000
          IF   1229.500      5.545      0.000      9.172      0.000      0.000      0.000      0.000      0.015      0.000
          IF   1237.000      5.712      0.000      9.172      0.000      0.000      0.000      0.000     -0.006      0.000
          IF   1241.000      5.479      0.000      9.172      0.000      0.000      0.000      0.000     -0.032      0.000
          IF   1248.500      5.348      0.000      9.173      0.000      0.000      0.000      0.000      0.004      0.000
          IF   1257.000      5.545      0.000      9.173      0.000      0.000      0.000      0.000      0.004      0.000
          IF   1266.000      5.413      0.000      9.174      0.000      0.000      0.000      0.000      0.000      0.000
          IF   1273.500      5.545      0.000      9.174      0.000      0.000      0.000      0.000      0.028      0.000
          IF   1278.000      5.745      0.000      9.174      0.000      0.000      0.000      0.000     -0.030      0.000
          IF   1283.500      5.249      0.000      9.174      0.000      0.000      0.000      0.000     -0.028      0.000
          IF   1292.000      5.348      0.000      9.174      0.000      0.000      0.000      0.000      0.008      0.000
          IF   1296.000      5.351      0.000      9.174      0.000      0.000      0.000      0.000      0.037      0.000
          IF   1300.000      5.643      0.000      9.175      0.000      0.000      0.000      0.000      0.022      0.000
          IF   1305.000      5.545      0.000      9.175      0.000      0.000      0.000      0.000      0.000      0.000
          IF   1308.500      5.643      0.000      9.175      0.000      0.000      0.000      0.000     -0.075      0.000
          IF   1316.000      4.724      0.000      9.175      0.000      0.000      0.000      0.000     -0.030      0.000
          IF   1322.500      5.220      0.000      9.175      0.000      0.000      0.000      0.000      0.073      0.000
          IF   1329.500      5.712      0.000      9.176      0.000      0.000      0.000      0.000     -0.066      0.000
          IF   1338.000      4.200      0.000      9.176      0.000      0.000      0.000      0.000     -0.102      0.000
          IF   1345.000      4.134      0.000      9.176      0.000      0.000      0.000      0.000     -0.025      0.000
          IF   1350.000      3.904      0.000      9.176      0.000      0.000      0.000      0.000     -0.028      0.000
          IF   1358.000      3.773      0.000      9.177      0.000      0.000      0.000      0.000      0.000      0.000
          IF   1368.000      3.904      0.000      9.177      0.000      0.000      0.000      0.000     -0.010      0.000
          IF   1374.000      3.609      0.000      9.177      0.000      0.000      0.000      0.000      0.024      0.000
          IF   1377.500      4.134      0.000      9.177      0.000      0.000      0.000      0.000      0.057      0.000
          IF   1382.000      4.068      0.000      9.178      0.000      0.000      0.000      0.000     -0.039      0.000
          IF   1388.500      3.707      0.000      9.178      0.000      0.000      0.000      0.000      0.005      0.000
          IF   1395.000      4.134      0.000      9.178      0.000      0.000      0.000      0.000      0.036      0.000
          IF   1398.500      4.068      0.000      9.178      0.000      0.000      0.000      0.000     -0.052      0.000
          IF   1405.000      3.609      0.000      9.179      0.000      0.000      0.000      0.000     -0.026      0.000
          IF   1413.500      3.674      0.000      9.179      0.000      0.000      0.000      0.000      0.000      0.000
          IF   1420.500      3.609      0.000      9.179      0.000      0.000      0.000      0.000      0.007      0.000
          IF   1427.500      3.773      0.000      9.179      0.000      0.000      0.000      0.000      0.018      0.000
          IF   1433.500      3.839      0.000      9.179      0.000      0.000      0.000      0.000      0.000      0.000
          IF   1439.500      3.773      0.000      9.180      0.000      0.000      0.000      0.000      0.032      0.000
          IF   1446.000      4.232      0.000      9.180      0.000      0.000      0.000      0.000      0.042      0.000
          IF   1452.000      4.298      0.000      9.180      0.000      0.000      0.000      0.000      0.123      0.000
          IF   1458.500      5.774      0.000      9.180      0.000      0.000      0.000      0.000      0.060      0.000
          IF   1463.000      4.954      0.000      9.181      0.000      0.000      0.000      0.000     -0.119      0.000
          IF   1466.500      4.823      0.000      9.181      0.000      0.000      0.000      0.000     -0.038      0.000
          IF   1472.500      4.593      0.000      9.181      0.000      0.000      0.000      0.000     -0.028      0.000
          IF   1477.000      4.528      0.000      9.181      0.000      0.000      0.000      0.000      0.015      0.000
          IF   1481.500      4.724      0.000      9.181      0.000      0.000      0.000      0.000      0.074      0.000
          IF   1489.000      5.413      0.000      9.182      0.000      0.000      0.000      0.000      0.034      0.000
          IF   1495.000      5.184      0.000      9.182      0.000      0.000      0.000      0.000     -0.034      0.000
          IF   1499.500      5.052      0.000      9.182      0.000      0.000      0.000      0.000     -0.022      0.000
          IF   1502.500      5.020      0.000      9.182      0.000      0.000      0.000      0.000      0.011      0.000
          IF   1505.500      5.118      0.000      9.182      0.000      0.000      0.000      0.000      0.033      0.000
          IF   1509.500      5.249      0.000      9.182      0.000      0.000      0.000      0.000     -0.008      0.000
          IF   1514.000      5.052      0.000      9.183      0.000      0.000      0.000      0.000     -0.025      0.000
          IF   1524.000      4.889      0.000      9.183      0.000      0.000      0.000      0.000     -0.002      0.000
          IF   1531.500      5.020      0.000      9.183      0.000      0.000      0.000      0.000      0.010      0.000
          IF   1540.000      5.052      0.000      9.184      0.000      0.000      0.000      0.000     -0.004      0.000
          IF   1547.000      4.954      0.000      9.184      0.000      0.000      0.000      0.000     -0.003      0.000
          IF   1551.500      5.020      0.000      9.184      0.000      0.000      0.000      0.000      0.000      0.000
          IF   1556.500      4.954      0.000      9.184      0.000      0.000      0.000      0.000     -0.025      0.000
          IF   1563.500      4.724      0.000      9.185      0.000      0.000      0.000      0.000     -0.017      0.000
          IF   1570.000      4.724      0.000      9.185      0.000      0.000      0.000      0.000      0.037      0.000
          IF   1571.500      5.020      0.000      9.185      0.000      0.000      0.000      0.000      0.055      0.000
          IF   1576.000      5.052      0.000      9.185      0.000      0.000      0.000      0.000      0.055      0.000
          IF   1581.000      5.545      0.000      9.185      0.000      0.000      0.000      0.000     -0.015      0.000
          IF   1587.000      4.889      0.000      9.186      0.000      0.000      0.000      0.000     -0.055      0.000
          IF   1597.000      4.659      0.000      9.186      0.000      0.000      0.000      0.000     -0.019      0.000
          IF   1603.000      4.593      0.000      9.186      0.000      0.000      0.000      0.000     -0.014      0.000
          IF   1608.500      4.495      0.000      9.186      0.000      0.000      0.000      0.000     -0.008      0.000
          IF   1615.500      4.495      0.000      9.187      0.000      0.000      0.000      0.000      0.002      0.000
          IF   1622.000      4.528      0.000      9.187      0.000      0.000      0.000      0.000     -0.004      0.000
          IF   1630.500      4.429      0.000      9.187      0.000      0.000      0.000      0.000     -0.012      0.000
          IF   1636.000      4.364      0.000      9.187      0.000      0.000      0.000      0.000      0.008      0.000
          IF   1642.500      4.528      0.000      9.187      0.000      0.000      0.000      0.000      0.012      0.000
          IF   1647.000      4.495      0.000      9.187      0.000      0.000      0.000      0.000     -0.007      0.000
          IF   1657.500      4.429      0.000      9.187      0.000      0.000      0.000      0.000     -0.008      0.000
          IF   1663.500      4.364      0.000      9.187      0.000      0.000      0.000      0.000      0.006      0.000
          IF   1668.000      4.495      0.000      9.188      0.000      0.000      0.000      0.000      0.007      0.000
          IF   1673.500      4.429      0.000      9.188      0.000      0.000      0.000      0.000      0.051      0.000
          IF   1679.000      5.056      0.000      9.188      0.000      0.000      0.000      0.000      0.110      0.000
          IF   1684.500      5.643      0.000      9.188      0.000      0.000      0.000      0.000      0.023      0.000
          IF   1690.500      5.315      0.000      9.188      0.000      0.000      0.000      0.000      0.000      0.000
          IF   1696.500      5.643      0.000      9.188      0.000      0.000      0.000      0.000      0.018      0.000
          IF   1703.500      5.545      0.000      9.188      0.000      0.000      0.000      0.000     -0.014      0.000
          IF   1708.000      5.479      0.000      9.188      0.000      0.000      0.000      0.000      0.000      0.000
          IF   1713.000      5.545      0.000      9.188      0.000      0.000      0.000      0.000      0.000      0.000
          IF   1721.500      5.479      0.000      9.188      0.000      0.000      0.000      0.000     -0.012      0.000
          IF   1729.500      5.348      0.000      9.188      0.000      0.000      0.000      0.000     -0.011      0.000
          IF   1736.000      5.315      0.000      9.188      0.000      0.000      0.000      0.000      0.006      0.000
          IF   1740.500      5.413      0.000      9.188      0.000      0.000      0.000      0.000     -0.006      0.000
          IF   1747.000      5.249      0.000      9.188      0.000      0.000      0.000      0.000     -0.010      0.000
          IF   1756.000      5.253      0.000      9.189      0.000      0.000      0.000      0.000     -0.004      0.000
          IF   1763.500      5.184      0.000      9.189      0.000      0.000      0.000      0.000      0.000      0.000
          IF   1768.000      5.253      0.000      9.189      0.000      0.000      0.000      0.000      0.007      0.000
          IF   1769.000      5.220      0.000      9.189      0.000      0.000      0.000      0.000     -0.046      0.000
          IF   1774.500      4.954      0.000      9.189      0.000      0.000      0.000      0.000     -0.003      0.000
          IF   1781.500      5.187      0.000      9.189      0.000      0.000      0.000      0.000      0.012      0.000
          IF   1788.000      5.118      0.000      9.189      0.000      0.000      0.000      0.000     -0.034      0.000
          IF   1795.000      4.724      0.000      9.189      0.000      0.000      0.000      0.000     -0.110      0.000
          IF   1799.000      3.904      0.000      9.189      0.000      0.000      0.000      0.000     -0.121      0.000
          OF   1838.500     -0.525      0.000      9.191      0.000      0.000      0.000      0.000      0.023      0.000
          IF   1847.000      5.020      0.000      9.191      0.000      0.000      0.000      0.000      0.274      0.000
          IF   1858.000      4.823      0.000      9.192      0.000      0.000      0.000      0.000      0.002      0.000
          IF   1866.000      5.056      0.000      9.192      0.000      0.000      0.000      0.000      0.048      0.000
          IF   1869.000      5.351      0.000      9.192      0.000      0.000      0.000      0.000     -0.026      0.000
          IF   1875.000      4.823      0.000      9.193      0.000      0.000      0.000      0.000     -0.039      0.000
          IF   1881.500      4.859      0.000      9.193      0.000      0.000      0.000      0.000      0.000      0.000
          IF   1884.000      4.823      0.000      9.193      0.000      0.000      0.000      0.000     -0.017      0.000
          IF   1889.500      4.724      0.000      9.193      0.000      0.000      0.000      0.000      0.000      0.000
          IF   1896.500      4.823      0.000      9.194      0.000      0.000      0.000      0.000      0.025      0.000
          IF   1901.500      5.020      0.000      9.194      0.000      0.000      0.000      0.000      0.007      0.000
          IF   1906.000      4.889      0.000      9.194      0.000      0.000      0.000      0.000     -0.038      0.000
          IF   1911.000      4.659      0.000      9.194      0.000      0.000      0.000      0.000      0.016      0.000
          IF   1916.500      5.056      0.000      9.195      0.000      0.000      0.000      0.000      0.007      0.000
          IF   1921.000      4.724      0.000      9.195      0.000      0.000      0.000      0.000     -0.044      0.000
          IF   1927.000      4.593      0.000      9.195      0.000      0.000      0.000      0.000     -0.017      0.000
          IF   1934.500      4.495      0.000      9.196      0.000      0.000      0.000      0.000      0.000      0.000
          IF   1940.000      4.593      0.000      9.196      0.000      0.000      0.000      0.000     -0.030      0.000
          IF   1944.500      4.200      0.000      9.196      0.000      0.000      0.000      0.000      0.004      0.000
          IF   1948.500      4.629      0.000      9.196      0.000      0.000      0.000      0.000     -0.007      0.000
          IF   1953.000      4.137      0.000      9.196      0.000      0.000      0.000      0.000     -0.252      0.000
          IF   1966.500      0.098      0.000      9.197      0.000      0.000      0.000      0.000      0.031      0.000
          IF   1972.000      4.724      0.000      9.197      0.000      0.000      0.000      0.000      0.417      0.000
          IF   1978.000      4.889      0.000      9.198      0.000      0.000      0.000      0.000     -0.192      0.000
          OF   1997.500     -0.164      0.000      9.199      0.000      0.000      0.000      0.000     -0.008      0.000
          IF   2005.500      4.659      0.000      9.199      0.000      0.000      0.000      0.000      0.357      0.000
          IF   2012.000      5.020      0.000      9.200      0.000      0.000      0.000      0.000      0.030      0.000
          IF   2021.000      5.118      0.000      9.200      0.000      0.000      0.000      0.000      0.013      0.000
          IF   2029.500      5.249      0.000      9.201      0.000      0.000      0.000      0.000      0.015      0.000
          IF   2034.500      5.315      0.000      9.201      0.000      0.000      0.000      0.000      0.023      0.000
          IF   2039.500      5.479      0.000      9.201      0.000      0.000      0.000      0.000      0.003      0.000
          IF   2044.500      5.348      0.000      9.202      0.000      0.000      0.000      0.000      0.000      0.000
          IF   2049.000      5.479      0.000      9.202      0.000      0.000      0.000      0.000      0.025      0.000
          IF   2052.500      5.545      0.000      9.202      0.000      0.000      0.000      0.000     -0.028      0.000
          IF   2056.000      5.285      0.000      9.202      0.000      0.000      0.000      0.000      0.072      0.000
          IF   2062.000      6.234      0.000      9.203      0.000      0.000      0.000      0.000      0.110      0.000
          IF   2067.000      6.496      0.000      9.203      0.000      0.000      0.000      0.000      0.036      0.000
          IF   2071.000      6.562      0.000      9.203      0.000      0.000      0.000      0.000      0.000      0.000
          IF   2075.000      6.496      0.000      9.203      0.000      0.000      0.000      0.000      0.006      0.000
          IF   2082.000      6.627      0.000      9.204      0.000      0.000      0.000      0.000      0.013      0.000
          IF   2090.500      6.693      0.000      9.204      0.000      0.000      0.000      0.000     -0.010      0.000
          IF   2095.000      6.496      0.000      9.205      0.000      0.000      0.000      0.000      0.021      0.000
          IF   2098.500      6.857      0.000      9.205      0.000      0.000      0.000      0.000      0.008      0.000
          IF   2103.000      6.562      0.000      9.205      0.000      0.000      0.000      0.000      0.021      0.000
          IF   2106.500      7.021      0.000      9.205      0.000      0.000      0.000      0.000      0.019      0.000
          IF   2110.000      6.693      0.000      9.205      0.000      0.000      0.000      0.000     -0.061      0.000
          IF   2113.000      6.627      0.000      9.206      0.000      0.000      0.000      0.000      0.021      0.000
          IF   2118.000      6.857      0.000      9.206      0.000      0.000      0.000      0.000      0.038      0.000
          IF   2128.500      7.218      0.000      9.206      0.000      0.000      0.000      0.000      0.012      0.000
          IF   2135.000      7.064      0.000      9.207      0.000      0.000      0.000      0.000      0.039      0.000
          IF   2137.000      7.546      0.000      9.207      0.000      0.000      0.000      0.000      0.064      0.000
          IF   2143.500      7.611      0.000      9.207      0.000      0.000      0.000      0.000     -0.010      0.000
          IF   2149.000      7.424      0.000      9.207      0.000      0.000      0.000      0.000      0.006      0.000
          IF   2154.000      7.677      0.000      9.207      0.000      0.000      0.000      0.000      0.033      0.000
          IF   2161.500      7.841      0.000      9.207      0.000      0.000      0.000      0.000      0.021      0.000
          IF   2168.000      7.972      0.000      9.207      0.000      0.000      0.000      0.000      0.038      0.000
          IF   2177.000      8.432      0.000      9.207      0.000      0.000      0.000      0.000      0.038      0.000
          IF   2182.000      8.497      0.000      9.207      0.000      0.000      0.000      0.000      0.019      0.000
          IF   2189.000      8.661      0.000      9.207      0.000      0.000      0.000      0.000      0.033      0.000
          IF   2196.000      8.957      0.000      9.207      0.000      0.000      0.000      0.000      0.029      0.000
          IF   2203.500      9.088      0.000      9.207      0.000      0.000      0.000      0.000      0.029      0.000
          IF   2204.700      9.207      0.000      9.207      0.000      0.000      0.000      0.000      0.099      0.000
          ET      0.000      0.000      0.000      0.000      0.000      0.000      0.000      0.000      0.000      0.000
1


            END        END      FETCH SURGE ELEV SURGE ELEV    INITIAL    INITIAL                BOTTOM    AVERAGE
        STATION  ELEVATION     LENGTH    10-YEAR   100-YEAR WAVE HEIGHT  W. PERIOD                SLOPE    A-ZONES
  IE      0.000     -1.709      1.000      1.000      9.223      8.051     10.530     56.140      0.006      0.000


            END        END  NEW SURGE  NEW SURGE                                                 BOTTOM    AVERAGE
        STATION  ELEVATION    10-YEAR   100-YEAR                                                  SLOPE    A-ZONES
  OF      3.300     -1.690      0.000      9.223      0.000      0.000      0.000      0.000      0.006      0.000


            END        END  NEW SURGE  NEW SURGE                                                 BOTTOM    AVERAGE
        STATION  ELEVATION    10-YEAR   100-YEAR                                                  SLOPE    A-ZONES
  OF      6.600     -1.672      0.000      9.223      0.000      0.000      0.000      0.000      0.006      0.000


            END        END  NEW SURGE  NEW SURGE                                                 BOTTOM    AVERAGE
        STATION  ELEVATION    10-YEAR   100-YEAR                                                  SLOPE    A-ZONES
  OF      9.800     -1.653      0.000      9.224      0.000      0.000      0.000      0.000      0.006      0.000


            END        END  NEW SURGE  NEW SURGE                                                 BOTTOM    AVERAGE
        STATION  ELEVATION    10-YEAR   100-YEAR                                                  SLOPE    A-ZONES
  OF     13.100     -1.635      0.000      9.224      0.000      0.000      0.000      0.000      0.006      0.000


            END        END  NEW SURGE  NEW SURGE                                                 BOTTOM    AVERAGE
        STATION  ELEVATION    10-YEAR   100-YEAR                                                  SLOPE    A-ZONES
  OF     16.400     -1.617      0.000      9.224      0.000      0.000      0.000      0.000      0.017      0.000


            END        END  NEW SURGE  NEW SURGE                                                 BOTTOM    AVERAGE
        STATION  ELEVATION    10-YEAR   100-YEAR                                                  SLOPE    A-ZONES
  OF     19.700     -1.525      0.000      9.224      0.000      0.000      0.000      0.000      0.030      0.000


            END        END  NEW SURGE  NEW SURGE                                                 BOTTOM    AVERAGE
        STATION  ELEVATION    10-YEAR   100-YEAR                                                  SLOPE    A-ZONES
  OF     52.500     -0.538      0.000      9.225      0.000      0.000      0.000      0.000      0.021      0.000


            END        END  NEW SURGE  NEW SURGE                                                 BOTTOM    AVERAGE
        STATION  ELEVATION    10-YEAR   100-YEAR                                                  SLOPE    A-ZONES
  OF     55.800     -0.757      0.000      9.228      0.000      0.000      0.000      0.000     -0.066      0.000


            END        END  NEW SURGE  NEW SURGE                                                 BOTTOM    AVERAGE
        STATION  ELEVATION    10-YEAR   100-YEAR                                                  SLOPE    A-ZONES
  OF     59.100     -0.975      0.000      9.231      0.000      0.000      0.000      0.000     -0.067      0.000


            END        END  NEW SURGE  NEW SURGE                                                 BOTTOM    AVERAGE
        STATION  ELEVATION    10-YEAR   100-YEAR                                                  SLOPE    A-ZONES
  OF     62.300     -1.194      0.000      9.233      0.000      0.000      0.000      0.000     -0.063      0.000


            END        END  NEW SURGE  NEW SURGE                                                 BOTTOM    AVERAGE
        STATION  ELEVATION    10-YEAR   100-YEAR                                                  SLOPE    A-ZONES
  OF     65.600     -1.386      0.000      9.235      0.000      0.000      0.000      0.000     -0.041      0.000


            END        END  NEW SURGE  NEW SURGE                                                 BOTTOM    AVERAGE
        STATION  ELEVATION    10-YEAR   100-YEAR                                                  SLOPE    A-ZONES
  OF     68.900     -1.463      0.000      9.236      0.000      0.000      0.000      0.000     -0.022      0.000


            END        END  NEW SURGE  NEW SURGE                                                 BOTTOM    AVERAGE
        STATION  ELEVATION    10-YEAR   100-YEAR                                                  SLOPE    A-ZONES
  OF     72.200     -1.532      0.000      9.237      0.000      0.000      0.000      0.000     -0.002      0.000


            END        END  NEW SURGE  NEW SURGE                                                 BOTTOM    AVERAGE
        STATION  ELEVATION    10-YEAR   100-YEAR                                                  SLOPE    A-ZONES
  OF     75.500     -1.474      0.000      9.238      0.000      0.000      0.000      0.000      0.017      0.000


            END        END  NEW SURGE  NEW SURGE                                                 BOTTOM    AVERAGE
        STATION  ELEVATION    10-YEAR   100-YEAR                                                  SLOPE    A-ZONES
  OF     78.700     -1.423      0.000      9.238      0.000      0.000      0.000      0.000      0.013      0.000


            END        END  NEW SURGE  NEW SURGE                                                 BOTTOM    AVERAGE
        STATION  ELEVATION    10-YEAR   100-YEAR                                                  SLOPE    A-ZONES
  OF     82.000     -1.388      0.000      9.238      0.000      0.000      0.000      0.000      0.011      0.000


            END        END  NEW SURGE  NEW SURGE                                                 BOTTOM    AVERAGE
        STATION  ELEVATION    10-YEAR   100-YEAR                                                  SLOPE    A-ZONES
  OF     85.300     -1.352      0.000      9.238      0.000      0.000      0.000      0.000      0.011      0.000


            END        END  NEW SURGE  NEW SURGE                                                 BOTTOM    AVERAGE
        STATION  ELEVATION    10-YEAR   100-YEAR                                                  SLOPE    A-ZONES
  OF     88.600     -1.316      0.000      9.239      0.000      0.000      0.000      0.000      0.040      0.000


            END        END  NEW SURGE  NEW SURGE                                                 BOTTOM    AVERAGE
        STATION  ELEVATION    10-YEAR   100-YEAR                                                  SLOPE    A-ZONES
  OF     91.900     -1.086      0.000      9.238      0.000      0.000      0.000      0.000      0.082      0.000


            END        END  NEW SURGE  NEW SURGE                                                 BOTTOM    AVERAGE
        STATION  ELEVATION    10-YEAR   100-YEAR                                                  SLOPE    A-ZONES
  OF     95.100     -0.781      0.000      9.236      0.000      0.000      0.000      0.000      0.094      0.000


            END        END  NEW SURGE  NEW SURGE                                                 BOTTOM    AVERAGE
        STATION  ELEVATION    10-YEAR   100-YEAR                                                  SLOPE    A-ZONES
  OF     98.400     -0.476      0.000      9.235      0.000      0.000      0.000      0.000      0.093      0.000


            END        END  NEW SURGE  NEW SURGE                                                 BOTTOM    AVERAGE
        STATION  ELEVATION    10-YEAR   100-YEAR                                                  SLOPE    A-ZONES
  OF    101.700     -0.168      0.000      9.233      0.000      0.000      0.000      0.000      0.101      0.000


            END        END  NEW SURGE  NEW SURGE                                                 BOTTOM    AVERAGE
        STATION  ELEVATION    10-YEAR   100-YEAR                                                  SLOPE    A-ZONES
  IF    105.000      0.194      0.000      9.231      0.000      0.000      0.000      0.000      0.110      0.000


            END        END  NEW SURGE  NEW SURGE                                                 BOTTOM    AVERAGE
        STATION  ELEVATION    10-YEAR   100-YEAR                                                  SLOPE    A-ZONES
  IF    108.300      0.556      0.000      9.229      0.000      0.000      0.000      0.000      0.111      0.000


            END        END  NEW SURGE  NEW SURGE                                                 BOTTOM    AVERAGE
        STATION  ELEVATION    10-YEAR   100-YEAR                                                  SLOPE    A-ZONES
  IF    111.500      0.917      0.000      9.228      0.000      0.000      0.000      0.000      0.137      0.000


            END        END  NEW SURGE  NEW SURGE                                                 BOTTOM    AVERAGE
        STATION  ELEVATION    10-YEAR   100-YEAR                                                  SLOPE    A-ZONES
  IF    114.800      1.443      0.000      9.225      0.000      0.000      0.000      0.000      0.226      0.000


            END        END  NEW SURGE  NEW SURGE                                                 BOTTOM    AVERAGE
        STATION  ELEVATION    10-YEAR   100-YEAR                                                  SLOPE    A-ZONES
  IF    128.000      4.647      0.000      9.244      0.000      0.000      0.000      0.000      0.215      0.000


            END        END  NEW SURGE  NEW SURGE                                                 BOTTOM    AVERAGE
        STATION  ELEVATION    10-YEAR   100-YEAR                                                  SLOPE    A-ZONES
  IF    131.200      4.963      0.000      9.277      0.000      0.000      0.000      0.000      0.115      0.000


            END        END  NEW SURGE  NEW SURGE                                                 BOTTOM    AVERAGE
        STATION  ELEVATION    10-YEAR   100-YEAR                                                  SLOPE    A-ZONES
  IF    134.500      5.394      0.000      9.306      0.000      0.000      0.000      0.000      0.141      0.000


            END        END  NEW SURGE  NEW SURGE                                                 BOTTOM    AVERAGE
        STATION  ELEVATION    10-YEAR   100-YEAR                                                  SLOPE    A-ZONES
  IF    137.800      5.896      0.000      9.333      0.000      0.000      0.000      0.000      0.208      0.000


            END        END  NEW SURGE  NEW SURGE                                                 BOTTOM    AVERAGE
        STATION  ELEVATION    10-YEAR   100-YEAR                                                  SLOPE    A-ZONES
  IF    141.100      6.765      0.000      9.371      0.000      0.000      0.000      0.000      0.258      0.000


            END        END  NEW SURGE  NEW SURGE                                                 BOTTOM    AVERAGE
        STATION  ELEVATION    10-YEAR   100-YEAR                                                  SLOPE    A-ZONES
  IF    144.400      7.599      0.000      9.585      0.000      0.000      0.000      0.000      0.238      0.000


            END        END  NEW SURGE  NEW SURGE                                                 BOTTOM    AVERAGE
        STATION  ELEVATION    10-YEAR   100-YEAR                                                  SLOPE    A-ZONES
  IF    147.600      8.310      0.000      9.768      0.000      0.000      0.000      0.000      0.146      0.000


            END        END  NEW SURGE  NEW SURGE                                                 BOTTOM    AVERAGE
        STATION  ELEVATION    10-YEAR   100-YEAR                                                  SLOPE    A-ZONES
  IF    150.900      8.545      0.000      9.880      0.000      0.000      0.000      0.000      0.076      0.000


            END        END  NEW SURGE  NEW SURGE                                                 BOTTOM    AVERAGE
        STATION  ELEVATION    10-YEAR   100-YEAR                                                  SLOPE    A-ZONES
  IF    154.200      8.812      0.000      9.945      0.000      0.000      0.000      0.000      0.102      0.000


            END        END  NEW SURGE  NEW SURGE                                                 BOTTOM    AVERAGE
        STATION  ELEVATION    10-YEAR   100-YEAR                                                  SLOPE    A-ZONES
  IF    157.500      9.216      0.000     10.007      0.000      0.000      0.000      0.000      0.145      0.000


            END        END  NEW SURGE  NEW SURGE                                                 BOTTOM    AVERAGE
        STATION  ELEVATION    10-YEAR   100-YEAR                                                  SLOPE    A-ZONES
  IF    160.800      9.769      0.000     10.158      0.000      0.000      0.000      0.000      0.162      0.000


            END        END  NEW SURGE  NEW SURGE                                                 BOTTOM    AVERAGE
        STATION  ELEVATION    10-YEAR   100-YEAR                                                  SLOPE    A-ZONES
  IF    163.300     10.158      0.000     10.158      0.000      0.000      0.000      0.000      0.155      0.000


            END        END  NEW SURGE  NEW SURGE                                                 BOTTOM    AVERAGE
        STATION  ELEVATION    10-YEAR   100-YEAR                                                  SLOPE    A-ZONES
  AS    664.200      9.159      0.000      9.159      0.000      0.000      0.000      0.000     -0.048      0.000


            END        END  NEW SURGE  NEW SURGE                                                 BOTTOM    AVERAGE
        STATION  ELEVATION    10-YEAR   100-YEAR                                                  SLOPE    A-ZONES
  IF    665.000      9.121      0.000      9.159      0.000      0.000      0.000      0.000      0.000      0.000


            END        END  NEW SURGE  NEW SURGE                                                 BOTTOM    AVERAGE
        STATION  ELEVATION    10-YEAR   100-YEAR                                                  SLOPE    A-ZONES
  IF    665.600      9.159      0.000      9.159      0.000      0.000      0.000      0.000      0.064      0.000


            END        END  NEW SURGE  NEW SURGE                                                 BOTTOM    AVERAGE
        STATION  ELEVATION    10-YEAR   100-YEAR                                                  SLOPE    A-ZONES
  AS    688.300      9.159      0.000      9.159      0.000      0.000      0.000      0.000     -0.040      0.000


            END        END  NEW SURGE  NEW SURGE                                                 BOTTOM    AVERAGE
        STATION  ELEVATION    10-YEAR   100-YEAR                                                  SLOPE    A-ZONES
  IF    690.000      9.091      0.000      9.159      0.000      0.000      0.000      0.000     -0.094      0.000


            END        END  NEW SURGE  NEW SURGE                                                 BOTTOM    AVERAGE
        STATION  ELEVATION    10-YEAR   100-YEAR                                                  SLOPE    A-ZONES
  IF    695.000      8.530      0.000      9.159      0.000      0.000      0.000      0.000     -0.087      0.000


            END        END  NEW SURGE  NEW SURGE                                                 BOTTOM    AVERAGE
        STATION  ELEVATION    10-YEAR   100-YEAR                                                  SLOPE    A-ZONES
  IF    702.500      8.005      0.000      9.159      0.000      0.000      0.000      0.000     -0.066      0.000


            END        END  NEW SURGE  NEW SURGE                                                 BOTTOM    AVERAGE
        STATION  ELEVATION    10-YEAR   100-YEAR                                                  SLOPE    A-ZONES
  IF    707.500      7.710      0.000      9.159      0.000      0.000      0.000      0.000     -0.062      0.000


            END        END  NEW SURGE  NEW SURGE                                                 BOTTOM    AVERAGE
        STATION  ELEVATION    10-YEAR   100-YEAR                                                  SLOPE    A-ZONES
  IF    712.000      7.415      0.000      9.159      0.000      0.000      0.000      0.000     -0.011      0.000


            END        END  NEW SURGE  NEW SURGE                                                 BOTTOM    AVERAGE
        STATION  ELEVATION    10-YEAR   100-YEAR                                                  SLOPE    A-ZONES
  IF    719.500      7.579      0.000      9.159      0.000      0.000      0.000      0.000      0.036      0.000


            END        END  NEW SURGE  NEW SURGE                                                 BOTTOM    AVERAGE
        STATION  ELEVATION    10-YEAR   100-YEAR                                                  SLOPE    A-ZONES
  IF    725.000      7.877      0.000      9.159      0.000      0.000      0.000      0.000     -0.200      0.000


            END        END  NEW SURGE  NEW SURGE                                                 BOTTOM    AVERAGE
        STATION  ELEVATION    10-YEAR   100-YEAR                                                  SLOPE    A-ZONES
  IF    728.500      5.774      0.000      9.159      0.000      0.000      0.000      0.000     -0.259      0.000


            END        END  NEW SURGE  NEW SURGE                                                 BOTTOM    AVERAGE
        STATION  ELEVATION    10-YEAR   100-YEAR                                                  SLOPE    A-ZONES
  IF    734.000      5.545      0.000      9.159      0.000      0.000      0.000      0.000     -0.054      0.000


            END        END  NEW SURGE  NEW SURGE                                                 BOTTOM    AVERAGE
        STATION  ELEVATION    10-YEAR   100-YEAR                                                  SLOPE    A-ZONES
  IF    737.000      5.315      0.000      9.159      0.000      0.000      0.000      0.000     -0.042      0.000


            END        END  NEW SURGE  NEW SURGE                                                 BOTTOM    AVERAGE
        STATION  ELEVATION    10-YEAR   100-YEAR                                                  SLOPE    A-ZONES
  IF    741.000      5.249      0.000      9.159      0.000      0.000      0.000      0.000      0.095      0.000


            END        END  NEW SURGE  NEW SURGE                                                 BOTTOM    AVERAGE
        STATION  ELEVATION    10-YEAR   100-YEAR                                                  SLOPE    A-ZONES
  IF    746.000      6.171      0.000      9.159      0.000      0.000      0.000      0.000      0.005      0.000


            END        END  NEW SURGE  NEW SURGE                                                 BOTTOM    AVERAGE
        STATION  ELEVATION    10-YEAR   100-YEAR                                                  SLOPE    A-ZONES
  IF    753.000      5.315      0.000      9.160      0.000      0.000      0.000      0.000      0.008      0.000


            END        END  NEW SURGE  NEW SURGE                                                 BOTTOM    AVERAGE
        STATION  ELEVATION    10-YEAR   100-YEAR                                                  SLOPE    A-ZONES
  IF    759.000      6.270      0.000      9.160      0.000      0.000      0.000      0.000     -0.132      0.000


            END        END  NEW SURGE  NEW SURGE                                                 BOTTOM    AVERAGE
        STATION  ELEVATION    10-YEAR   100-YEAR                                                  SLOPE    A-ZONES
  OF    834.000     -5.363      0.000      9.161      0.000      0.000      0.000      0.000     -0.154      0.000


            END        END  NEW SURGE  NEW SURGE                                                 BOTTOM    AVERAGE
        STATION  ELEVATION    10-YEAR   100-YEAR                                                  SLOPE    A-ZONES
  OF    835.000     -5.468      0.000      9.161      0.000      0.000      0.000      0.000     -0.069      0.000


            END        END  NEW SURGE  NEW SURGE                                                 BOTTOM    AVERAGE
        STATION  ELEVATION    10-YEAR   100-YEAR                                                  SLOPE    A-ZONES
  OF    838.000     -5.637      0.000      9.161      0.000      0.000      0.000      0.000     -0.042      0.000


            END        END  NEW SURGE  NEW SURGE                                                 BOTTOM    AVERAGE
        STATION  ELEVATION    10-YEAR   100-YEAR                                                  SLOPE    A-ZONES
  OF    839.000     -5.637      0.000      9.161      0.000      0.000      0.000      0.000      0.000      0.000


            END        END  NEW SURGE  NEW SURGE                                                 BOTTOM    AVERAGE
        STATION  ELEVATION    10-YEAR   100-YEAR                                                  SLOPE    A-ZONES
  OF    841.000     -5.637      0.000      9.161      0.000      0.000      0.000      0.000      0.000      0.000


            END        END  NEW SURGE  NEW SURGE                                                 BOTTOM    AVERAGE
        STATION  ELEVATION    10-YEAR   100-YEAR                                                  SLOPE    A-ZONES
  OF    842.000     -5.637      0.000      9.161      0.000      0.000      0.000      0.000      0.000      0.000


            END        END  NEW SURGE  NEW SURGE                                                 BOTTOM    AVERAGE
        STATION  ELEVATION    10-YEAR   100-YEAR                                                  SLOPE    A-ZONES
  OF    844.000     -5.637      0.000      9.161      0.000      0.000      0.000      0.000      0.000      0.000


            END        END  NEW SURGE  NEW SURGE                                                 BOTTOM    AVERAGE
        STATION  ELEVATION    10-YEAR   100-YEAR                                                  SLOPE    A-ZONES
  OF    845.000     -5.637      0.000      9.161      0.000      0.000      0.000      0.000      0.000      0.000


            END        END  NEW SURGE  NEW SURGE                                                 BOTTOM    AVERAGE
        STATION  ELEVATION    10-YEAR   100-YEAR                                                  SLOPE    A-ZONES
  OF    847.000     -5.636      0.000      9.161      0.000      0.000      0.000      0.000      0.000      0.000


            END        END  NEW SURGE  NEW SURGE                                                 BOTTOM    AVERAGE
        STATION  ELEVATION    10-YEAR   100-YEAR                                                  SLOPE    A-ZONES
  OF    848.000     -5.636      0.000      9.161      0.000      0.000      0.000      0.000      0.000      0.000


            END        END  NEW SURGE  NEW SURGE                                                 BOTTOM    AVERAGE
        STATION  ELEVATION    10-YEAR   100-YEAR                                                  SLOPE    A-ZONES
  OF    850.000     -5.636      0.000      9.161      0.000      0.000      0.000      0.000      0.000      0.000


            END        END  NEW SURGE  NEW SURGE                                                 BOTTOM    AVERAGE
        STATION  ELEVATION    10-YEAR   100-YEAR                                                  SLOPE    A-ZONES
  OF    851.000     -5.636      0.000      9.161      0.000      0.000      0.000      0.000      0.000      0.000


            END        END  NEW SURGE  NEW SURGE                                                 BOTTOM    AVERAGE
        STATION  ELEVATION    10-YEAR   100-YEAR                                                  SLOPE    A-ZONES
  OF    853.000     -5.636      0.000      9.161      0.000      0.000      0.000      0.000      0.000      0.000


            END        END  NEW SURGE  NEW SURGE                                                 BOTTOM    AVERAGE
        STATION  ELEVATION    10-YEAR   100-YEAR                                                  SLOPE    A-ZONES
  OF    854.000     -5.636      0.000      9.161      0.000      0.000      0.000      0.000      0.000      0.000


            END        END  NEW SURGE  NEW SURGE                                                 BOTTOM    AVERAGE
        STATION  ELEVATION    10-YEAR   100-YEAR                                                  SLOPE    A-ZONES
  OF    856.000     -5.636      0.000      9.161      0.000      0.000      0.000      0.000      0.000      0.000


            END        END  NEW SURGE  NEW SURGE                                                 BOTTOM    AVERAGE
        STATION  ELEVATION    10-YEAR   100-YEAR                                                  SLOPE    A-ZONES
  OF    857.000     -5.635      0.000      9.162      0.000      0.000      0.000      0.000      0.000      0.000


            END        END  NEW SURGE  NEW SURGE                                                 BOTTOM    AVERAGE
        STATION  ELEVATION    10-YEAR   100-YEAR                                                  SLOPE    A-ZONES
  OF    859.000     -5.635      0.000      9.162      0.000      0.000      0.000      0.000      0.000      0.000


            END        END  NEW SURGE  NEW SURGE                                                 BOTTOM    AVERAGE
        STATION  ELEVATION    10-YEAR   100-YEAR                                                  SLOPE    A-ZONES
  OF    860.000     -5.635      0.000      9.162      0.000      0.000      0.000      0.000      0.000      0.000


            END        END  NEW SURGE  NEW SURGE                                                 BOTTOM    AVERAGE
        STATION  ELEVATION    10-YEAR   100-YEAR                                                  SLOPE    A-ZONES
  OF    862.000     -5.635      0.000      9.162      0.000      0.000      0.000      0.000      0.000      0.000


            END        END  NEW SURGE  NEW SURGE                                                 BOTTOM    AVERAGE
        STATION  ELEVATION    10-YEAR   100-YEAR                                                  SLOPE    A-ZONES
  OF    863.000     -5.635      0.000      9.162      0.000      0.000      0.000      0.000      0.000      0.000


            END        END  NEW SURGE  NEW SURGE                                                 BOTTOM    AVERAGE
        STATION  ELEVATION    10-YEAR   100-YEAR                                                  SLOPE    A-ZONES
  OF    865.000     -5.635      0.000      9.162      0.000      0.000      0.000      0.000      0.000      0.000


            END        END  NEW SURGE  NEW SURGE                                                 BOTTOM    AVERAGE
        STATION  ELEVATION    10-YEAR   100-YEAR                                                  SLOPE    A-ZONES
  OF    866.000     -5.635      0.000      9.162      0.000      0.000      0.000      0.000      0.000      0.000


            END        END  NEW SURGE  NEW SURGE                                                 BOTTOM    AVERAGE
        STATION  ELEVATION    10-YEAR   100-YEAR                                                  SLOPE    A-ZONES
  OF    868.000     -5.635      0.000      9.162      0.000      0.000      0.000      0.000      0.000      0.000


            END        END  NEW SURGE  NEW SURGE                                                 BOTTOM    AVERAGE
        STATION  ELEVATION    10-YEAR   100-YEAR                                                  SLOPE    A-ZONES
  OF    869.000     -5.635      0.000      9.162      0.000      0.000      0.000      0.000      0.000      0.000


            END        END  NEW SURGE  NEW SURGE                                                 BOTTOM    AVERAGE
        STATION  ELEVATION    10-YEAR   100-YEAR                                                  SLOPE    A-ZONES
  OF    871.000     -5.634      0.000      9.162      0.000      0.000      0.000      0.000      0.000      0.000


            END        END  NEW SURGE  NEW SURGE                                                 BOTTOM    AVERAGE
        STATION  ELEVATION    10-YEAR   100-YEAR                                                  SLOPE    A-ZONES
  OF    872.000     -5.634      0.000      9.162      0.000      0.000      0.000      0.000      0.000      0.000


            END        END  NEW SURGE  NEW SURGE                                                 BOTTOM    AVERAGE
        STATION  ELEVATION    10-YEAR   100-YEAR                                                  SLOPE    A-ZONES
  OF    874.000     -5.634      0.000      9.162      0.000      0.000      0.000      0.000      0.000      0.000


            END        END  NEW SURGE  NEW SURGE                                                 BOTTOM    AVERAGE
        STATION  ELEVATION    10-YEAR   100-YEAR                                                  SLOPE    A-ZONES
  OF    875.000     -5.634      0.000      9.162      0.000      0.000      0.000      0.000      0.000      0.000


            END        END  NEW SURGE  NEW SURGE                                                 BOTTOM    AVERAGE
        STATION  ELEVATION    10-YEAR   100-YEAR                                                  SLOPE    A-ZONES
  OF    877.000     -5.634      0.000      9.162      0.000      0.000      0.000      0.000      0.000      0.000


            END        END  NEW SURGE  NEW SURGE                                                 BOTTOM    AVERAGE
        STATION  ELEVATION    10-YEAR   100-YEAR                                                  SLOPE    A-ZONES
  OF    878.000     -5.634      0.000      9.162      0.000      0.000      0.000      0.000      0.000      0.000


            END        END  NEW SURGE  NEW SURGE                                                 BOTTOM    AVERAGE
        STATION  ELEVATION    10-YEAR   100-YEAR                                                  SLOPE    A-ZONES
  OF    880.000     -5.634      0.000      9.162      0.000      0.000      0.000      0.000      0.000      0.000


            END        END  NEW SURGE  NEW SURGE                                                 BOTTOM    AVERAGE
        STATION  ELEVATION    10-YEAR   100-YEAR                                                  SLOPE    A-ZONES
  OF    881.000     -5.634      0.000      9.162      0.000      0.000      0.000      0.000      0.000      0.000


            END        END  NEW SURGE  NEW SURGE                                                 BOTTOM    AVERAGE
        STATION  ELEVATION    10-YEAR   100-YEAR                                                  SLOPE    A-ZONES
  OF    883.000     -5.633      0.000      9.162      0.000      0.000      0.000      0.000      0.000      0.000


            END        END  NEW SURGE  NEW SURGE                                                 BOTTOM    AVERAGE
        STATION  ELEVATION    10-YEAR   100-YEAR                                                  SLOPE    A-ZONES
  OF    884.000     -5.633      0.000      9.162      0.000      0.000      0.000      0.000      0.000      0.000


            END        END  NEW SURGE  NEW SURGE                                                 BOTTOM    AVERAGE
        STATION  ELEVATION    10-YEAR   100-YEAR                                                  SLOPE    A-ZONES
  OF    886.000     -5.633      0.000      9.162      0.000      0.000      0.000      0.000      0.000      0.000


            END        END  NEW SURGE  NEW SURGE                                                 BOTTOM    AVERAGE
        STATION  ELEVATION    10-YEAR   100-YEAR                                                  SLOPE    A-ZONES
  OF    887.000     -5.633      0.000      9.163      0.000      0.000      0.000      0.000      0.000      0.000


            END        END  NEW SURGE  NEW SURGE                                                 BOTTOM    AVERAGE
        STATION  ELEVATION    10-YEAR   100-YEAR                                                  SLOPE    A-ZONES
  OF    889.000     -5.633      0.000      9.163      0.000      0.000      0.000      0.000      0.000      0.000


            END        END  NEW SURGE  NEW SURGE                                                 BOTTOM    AVERAGE
        STATION  ELEVATION    10-YEAR   100-YEAR                                                  SLOPE    A-ZONES
  OF    890.000     -5.633      0.000      9.163      0.000      0.000      0.000      0.000      0.000      0.000


            END        END  NEW SURGE  NEW SURGE                                                 BOTTOM    AVERAGE
        STATION  ELEVATION    10-YEAR   100-YEAR                                                  SLOPE    A-ZONES
  OF    892.000     -5.633      0.000      9.163      0.000      0.000      0.000      0.000      0.000      0.000


            END        END  NEW SURGE  NEW SURGE                                                 BOTTOM    AVERAGE
        STATION  ELEVATION    10-YEAR   100-YEAR                                                  SLOPE    A-ZONES
  OF    893.000     -5.632      0.000      9.163      0.000      0.000      0.000      0.000      0.000      0.000


            END        END  NEW SURGE  NEW SURGE                                                 BOTTOM    AVERAGE
        STATION  ELEVATION    10-YEAR   100-YEAR                                                  SLOPE    A-ZONES
  OF    895.000     -5.632      0.000      9.163      0.000      0.000      0.000      0.000      0.000      0.000


            END        END  NEW SURGE  NEW SURGE                                                 BOTTOM    AVERAGE
        STATION  ELEVATION    10-YEAR   100-YEAR                                                  SLOPE    A-ZONES
  OF    896.000     -5.632      0.000      9.163      0.000      0.000      0.000      0.000      0.000      0.000


            END        END  NEW SURGE  NEW SURGE                                                 BOTTOM    AVERAGE
        STATION  ELEVATION    10-YEAR   100-YEAR                                                  SLOPE    A-ZONES
  OF    899.000     -5.632      0.000      9.163      0.000      0.000      0.000      0.000      0.000      0.000


            END        END  NEW SURGE  NEW SURGE                                                 BOTTOM    AVERAGE
        STATION  ELEVATION    10-YEAR   100-YEAR                                                  SLOPE    A-ZONES
  OF    901.000     -5.632      0.000      9.163      0.000      0.000      0.000      0.000      0.000      0.000


            END        END  NEW SURGE  NEW SURGE                                                 BOTTOM    AVERAGE
        STATION  ELEVATION    10-YEAR   100-YEAR                                                  SLOPE    A-ZONES
  OF    902.000     -5.632      0.000      9.163      0.000      0.000      0.000      0.000      0.000      0.000


            END        END  NEW SURGE  NEW SURGE                                                 BOTTOM    AVERAGE
        STATION  ELEVATION    10-YEAR   100-YEAR                                                  SLOPE    A-ZONES
  OF    907.000     -5.631      0.000      9.163      0.000      0.000      0.000      0.000      0.000      0.000


            END        END  NEW SURGE  NEW SURGE                                                 BOTTOM    AVERAGE
        STATION  ELEVATION    10-YEAR   100-YEAR                                                  SLOPE    A-ZONES
  OF    908.000     -5.631      0.000      9.163      0.000      0.000      0.000      0.000      0.000      0.000


            END        END  NEW SURGE  NEW SURGE                                                 BOTTOM    AVERAGE
        STATION  ELEVATION    10-YEAR   100-YEAR                                                  SLOPE    A-ZONES
  OF    913.000     -5.631      0.000      9.163      0.000      0.000      0.000      0.000      0.000      0.000


            END        END  NEW SURGE  NEW SURGE                                                 BOTTOM    AVERAGE
        STATION  ELEVATION    10-YEAR   100-YEAR                                                  SLOPE    A-ZONES
  OF    914.000     -5.631      0.000      9.163      0.000      0.000      0.000      0.000      0.000      0.000


            END        END  NEW SURGE  NEW SURGE                                                 BOTTOM    AVERAGE
        STATION  ELEVATION    10-YEAR   100-YEAR                                                  SLOPE    A-ZONES
  OF    919.000     -5.630      0.000      9.163      0.000      0.000      0.000      0.000      0.000      0.000


            END        END  NEW SURGE  NEW SURGE                                                 BOTTOM    AVERAGE
        STATION  ELEVATION    10-YEAR   100-YEAR                                                  SLOPE    A-ZONES
  OF    920.000     -5.630      0.000      9.163      0.000      0.000      0.000      0.000      0.000      0.000


            END        END  NEW SURGE  NEW SURGE                                                 BOTTOM    AVERAGE
[...]

                                                                          V23  EL=14     130

                                              95.10          14.48

                                                                          V23  EL=14     130

                                              98.40          14.40

                                                                          V23  EL=14     130

                                             101.70          14.24

                                                                          V23  EL=14     130

                                             105.00          14.04

                                                                          V23  EL=14     130

                                             108.30          13.85

                                                                          V23  EL=14     130

                                             111.50          13.66

                                                                          V23  EL=14     130

                                             113.43          13.50

                                                                          V23  EL=13     130

                                             114.80          13.38

                                                                          V23  EL=13     130

                                             121.82          12.50

                                                                          V23  EL=12     130

                                             128.00          11.72

                                                                          V23  EL=12     130

                                             131.20          11.60

                                                                          V23  EL=12     130

                                             133.06          11.50

                                                                          V23  EL=11     130

                                             134.50          11.42

                                                                          V23  EL=11     130

                                             134.67          11.42

                                                                          A18  EL=11      90

                                             137.80          11.19

                                                                          A18  EL=11      90

                                             141.10          10.78

                                                                          A18  EL=11      90

                                             144.40          10.66

                                                                          A18  EL=11      90

                                             147.60          10.56

                                                                          A18  EL=11      90

                                             150.90          10.61

                                                                          A18  EL=11      90

                                             154.20          10.56

                                                                          A18  EL=11      90

                                             155.84          10.50

                                                                          A18  EL=10      90

                                             157.50          10.44

                                                                          A18  EL=10      90

                                             160.80          10.37

                                                                          A18  EL=10      90

                                             163.30          10.16


                                             664.20           9.16

                                                                          A18  EL= 9      90

                                             665.60           9.16


                                             688.30           9.16

                                                                          A18  EL= 9      90

                                             746.00           9.31

                                                                          A18  EL= 9      90

                                             753.00           9.32

                                                                          A18  EL= 9      90

                                             759.00           9.33

                                                                          A18  EL= 9      90

                                             834.00           9.44

                                                                          A18  EL= 9      90

                                             856.00           9.47

                                                                          A18  EL= 9      90

                                             857.00           9.47

                                                                          A18  EL= 9      90

                                             882.37           9.50

                                                                          A18  EL=10      90

                                             886.00           9.50

                                                                          A18  EL=10      90

                                             887.00           9.51

                                                                          A18  EL=10      90

                                             920.00           9.54

                                                                          A18  EL=10      90

                                             925.00           9.55

                                                                          A18  EL=10      90

                                             968.00           9.60

                                                                          A18  EL=10      90

                                             973.00           9.60

                                                                          A18  EL=10      90

                                            1040.00           9.67

                                                                          A18  EL=10      90

                                            1045.00           9.67

                                                                          A18  EL=10      90

                                            1070.00           9.70

                                                                          A18  EL=10      90

                                            1081.00           9.71

                                                                          A18  EL=10      90

                                            1111.00           9.74

                                                                          A18  EL=10      90

                                            1135.00           9.76

                                                                          A18  EL=10      90

                                            1139.50           9.76

                                                                          A18  EL=10      90

                                            1160.00           9.78

                                                                          A18  EL=10      90

                                            1166.50           9.78

                                                                          A18  EL=10      90

                                            1185.50           9.80

                                                                          A18  EL=10      90

                                            1196.50           9.81

                                                                          A18  EL=10      90

                                            1212.00           9.82

                                                                          A18  EL=10      90

                                            1217.00           9.82

                                                                          A18  EL=10      90

                                            1241.00           9.84

                                                                          A18  EL=10      90

                                            1248.50           9.85

                                                                          A18  EL=10      90

                                            1257.00           9.86

                                                                          A18  EL=10      90

                                            1266.00           9.87

                                                                          A18  EL=10      90

                                            1296.00           9.89

                                                                          A18  EL=10      90

                                            1300.00           9.89

                                                                          A18  EL=10      90

                                            1322.50           9.91

                                                                          A18  EL=10      90

                                            1329.50           9.91

                                                                          A18  EL=10      90

                                            1350.00           9.94

                                                                          A18  EL=10      90

                                            1358.00           9.94

                                                                          A18  EL=10      90

                                            1377.50           9.96

                                                                          A18  EL=10      90

                                            1382.00           9.96

                                                                          A18  EL=10      90

                                            1398.50           9.98

                                                                          A18  EL=10      90

                                            1405.00           9.98

                                                                          A18  EL=10      90

                                            1433.50          10.00

                                                                          A18  EL=10      90

                                            1439.50          10.01

                                                                          A18  EL=10      90

                                            1458.50          10.00

                                                                          A18  EL=10      90

                                            1463.00          10.01

                                                                          A18  EL=10      90

                                            1481.50          10.03

                                                                          A18  EL=10      90

                                            1489.00          10.03

                                                                          A18  EL=10      90

                                            1509.50          10.05

                                                                          A18  EL=10      90

                                            1514.00          10.05

                                                                          A18  EL=10      90

                                            1531.50          10.06

                                                                          A18  EL=10      90

                                            1540.00          10.07

                                                                          A18  EL=10      90

                                            1556.50          10.08

                                                                          A18  EL=10      90

                                            1563.50          10.09

                                                                          A18  EL=10      90

                                            1581.00          10.08

                                                                          A18  EL=10      90

                                            1587.00          10.10

                                                                          A18  EL=10      90

                                            1608.50          10.12

                                                                          A18  EL=10      90

                                            1615.50          10.12

                                                                          A18  EL=10      90

                                            1663.50          10.16

                                                                          A18  EL=10      90

                                            1668.00          10.16

                                                                          A18  EL=10      90

                                            1747.00          10.18

                                                                          A18  EL=10      90

                                            1756.00          10.19

                                                                          A18  EL=10      90

                                            1799.00          10.24

                                                                          A18  EL=10      90

                                            1838.50          10.27

                                                                          A18  EL=10      90

                                            1847.00          10.25

                                                                          A18  EL=10      90

                                            1858.00          10.26

                                                                          A18  EL=10      90

                                            1869.00          10.25

                                                                          A18  EL=10      90

                                            1875.00          10.26

                                                                          A18  EL=10      90

                                            1889.50          10.27

                                                                          A18  EL=10      90

                                            1896.50          10.28

                                                                          A18  EL=10      90

                                            1911.00          10.29

                                                                          A18  EL=10      90

                                            1916.50          10.28

                                                                          A18  EL=10      90

                                            1927.00          10.30

                                                                          A18  EL=10      90

                                            1934.50          10.31

                                                                          A18  EL=10      90

                                            1953.00          10.33

                                                                          A18  EL=10      90

                                            1966.50          10.35

                                                                          A18  EL=10      90

                                            1972.00          10.33

                                                                          A18  EL=10      90

                                            1978.00          10.33

                                                                          A18  EL=10      90

                                            1997.50          10.37

                                                                          A18  EL=10      90

                                            2005.50          10.35

                                                                          A18  EL=10      90

                                            2012.00          10.34

                                                                          A18  EL=10      90

                                            2021.00          10.34

                                                                          A18  EL=10      90

                                            2029.50          10.33

                                                                          A18  EL=10      90

                                            2039.50          10.32

                                                                          A18  EL=10      90

                                            2044.50          10.33

                                                                          A18  EL=10      90

                                            2056.00          10.34

                                                                          A18  EL=10      90

                                            2062.00          10.24

                                                                          A18  EL=10      90

                                            2075.00          10.19

                                                                          A18  EL=10      90

                                            2082.00          10.17

                                                                          A18  EL=10      90

                                            2090.50          10.16

                                                                          A18  EL=10      90

                                            2095.00          10.17

                                                                          A18  EL=10      90

                                            2110.00          10.11

                                                                          A18  EL=10      90

                                            2113.00          10.12

                                                                          A18  EL=10      90

                                            2128.50          10.04

                                                                          A18  EL=10      90

                                            2135.00          10.04

                                                                          A18  EL=10      90

                                            2187.76           9.50

                                                                          A18  EL= 9      90

                                            2204.70           9.21



                                                  ZONE TERMINATED AT END OF TRANSECT



                                                  PART 7   POSTSCRIPT NOTES


                         PS#  1   START(388924.5919,4812444.3371)                                              
                         PS#  2   END(388085.6903,4812152.2444)                                                
