 WAVE HEIGHT COMPUTATIONS FOR FLOOD INSURANCE STUDIES (WHAFIS VERSION 4.0G, 08_2007)
 Executed on: Mon May 11 15:31:26 2020
 Input file:  C:\FEMA-TransectAnalysis\LOMR-TransectAnalysis-Biddeford\3_whafis\whafis4\YK-124.dat                                            
 Output file: C:\FEMA-TransectAnalysis\LOMR-TransectAnalysis-Biddeford\3_whafis\whafis4\YK-124.out                                            
                                                              header                                                                
                                                     THIS IS A 100-YEAR CASE
                                       THE FOLLOWING NON-DEFAULT WIND SPEEDS ARE BEING USED
                                            WINDIF  56.14  WINDOF  56.14  WINDVH  60.00
                                                             PART1 INPUT
          IE      0.000    -15.556      1.000      1.000      8.996      6.996      6.960     56.140     -0.089      0.000
          OF      1.000    -15.645      0.000      8.996      0.000      0.000      0.000      0.000     -0.089      0.000
          OF      2.000    -15.734      0.000      8.996      0.000      0.000      0.000      0.000     -0.089      0.000
          OF      3.000    -15.823      0.000      8.996      0.000      0.000      0.000      0.000     -0.090      0.000
          OF      4.000    -15.913      0.000      8.997      0.000      0.000      0.000      0.000     -0.090      0.000
          OF      5.000    -16.002      0.000      8.997      0.000      0.000      0.000      0.000     -0.089      0.000
          OF      6.000    -16.091      0.000      8.997      0.000      0.000      0.000      0.000     -0.089      0.000
          OF      7.000    -16.180      0.000      8.997      0.000      0.000      0.000      0.000     -0.089      0.000
          OF      8.000    -16.269      0.000      8.997      0.000      0.000      0.000      0.000     -0.089      0.000
          OF      9.000    -16.357      0.000      8.997      0.000      0.000      0.000      0.000     -0.089      0.000
          OF     10.000    -16.447      0.000      8.997      0.000      0.000      0.000      0.000     -0.090      0.000
          OF     11.000    -16.536      0.000      8.997      0.000      0.000      0.000      0.000     -0.089      0.000
          OF     12.000    -16.625      0.000      8.997      0.000      0.000      0.000      0.000     -0.089      0.000
          OF     13.000    -16.714      0.000      8.997      0.000      0.000      0.000      0.000     -0.074      0.000
          OF     14.000    -16.773      0.000      8.997      0.000      0.000      0.000      0.000     -0.030      0.000
          OF     15.000    -16.773      0.000      8.997      0.000      0.000      0.000      0.000      0.000      0.000
          OF     16.000    -16.773      0.000      8.997      0.000      0.000      0.000      0.000      0.000      0.000
          OF     17.000    -16.773      0.000      8.997      0.000      0.000      0.000      0.000      0.000      0.000
          OF     18.000    -16.773      0.000      8.997      0.000      0.000      0.000      0.000      0.000      0.000
          OF     19.000    -16.773      0.000      8.997      0.000      0.000      0.000      0.000      0.000      0.000
          OF     20.000    -16.773      0.000      8.997      0.000      0.000      0.000      0.000      0.000      0.000
          OF     21.000    -16.773      0.000      8.997      0.000      0.000      0.000      0.000      0.000      0.000
          OF     22.000    -16.773      0.000      8.997      0.000      0.000      0.000      0.000      0.000      0.000
          OF     23.000    -16.773      0.000      8.997      0.000      0.000      0.000      0.000      0.000      0.000
          OF     24.000    -16.773      0.000      8.997      0.000      0.000      0.000      0.000      0.000      0.000
          OF     25.000    -16.773      0.000      8.997      0.000      0.000      0.000      0.000      0.000      0.000
          OF     26.000    -16.773      0.000      8.997      0.000      0.000      0.000      0.000      0.000      0.000
          OF     27.000    -16.773      0.000      8.997      0.000      0.000      0.000      0.000      0.000      0.000
          OF     28.000    -16.773      0.000      8.997      0.000      0.000      0.000      0.000      0.000      0.000
          OF     29.000    -16.773      0.000      8.997      0.000      0.000      0.000      0.000      0.000      0.000
          OF     30.000    -16.773      0.000      8.997      0.000      0.000      0.000      0.000      0.000      0.000
          OF     31.000    -16.773      0.000      8.997      0.000      0.000      0.000      0.000      0.000      0.000
          OF     32.000    -16.773      0.000      8.997      0.000      0.000      0.000      0.000      0.000      0.000
          OF     33.000    -16.773      0.000      8.997      0.000      0.000      0.000      0.000      0.000      0.000
          OF     34.000    -16.773      0.000      8.997      0.000      0.000      0.000      0.000      0.000      0.000
          OF     35.000    -16.773      0.000      8.997      0.000      0.000      0.000      0.000      0.000      0.000
          OF     36.000    -16.773      0.000      8.997      0.000      0.000      0.000      0.000      0.000      0.000
          OF     37.000    -16.773      0.000      8.997      0.000      0.000      0.000      0.000      0.000      0.000
          OF     38.000    -16.773      0.000      8.997      0.000      0.000      0.000      0.000      0.000      0.000
          OF     39.000    -16.773      0.000      8.997      0.000      0.000      0.000      0.000      0.000      0.000
          OF     40.000    -16.773      0.000      8.997      0.000      0.000      0.000      0.000      0.000      0.000
          OF     41.000    -16.773      0.000      8.997      0.000      0.000      0.000      0.000      0.000      0.000
          OF     42.000    -16.773      0.000      8.997      0.000      0.000      0.000      0.000      0.001      0.000
          OF     43.000    -16.772      0.000      8.997      0.000      0.000      0.000      0.000      0.001      0.000
          OF     44.000    -16.772      0.000      8.997      0.000      0.000      0.000      0.000      0.000      0.000
          OF     45.000    -16.772      0.000      8.997      0.000      0.000      0.000      0.000      0.000      0.000
          OF     46.000    -16.772      0.000      8.997      0.000      0.000      0.000      0.000      0.000      0.000
          OF     47.000    -16.772      0.000      8.997      0.000      0.000      0.000      0.000      0.000      0.000
          OF     48.000    -16.772      0.000      8.997      0.000      0.000      0.000      0.000      0.000      0.000
          OF     49.000    -16.772      0.000      8.997      0.000      0.000      0.000      0.000      0.000      0.000
          OF     50.000    -16.772      0.000      8.997      0.000      0.000      0.000      0.000      0.000      0.000
          OF     51.000    -16.772      0.000      8.997      0.000      0.000      0.000      0.000      0.000      0.000
          OF     52.000    -16.772      0.000      8.997      0.000      0.000      0.000      0.000      0.000      0.000
          OF     53.000    -16.772      0.000      8.998      0.000      0.000      0.000      0.000      0.000      0.000
          OF     54.000    -16.772      0.000      8.998      0.000      0.000      0.000      0.000      0.000      0.000
          OF     55.000    -16.772      0.000      8.998      0.000      0.000      0.000      0.000      0.000      0.000
          OF     56.000    -16.772      0.000      8.998      0.000      0.000      0.000      0.000      0.000      0.000
          OF     57.000    -16.772      0.000      8.998      0.000      0.000      0.000      0.000      0.000      0.000
          OF     58.000    -16.772      0.000      8.998      0.000      0.000      0.000      0.000      0.000      0.000
          OF     59.000    -16.772      0.000      8.998      0.000      0.000      0.000      0.000      0.000      0.000
          OF     60.000    -16.772      0.000      8.998      0.000      0.000      0.000      0.000      0.000      0.000
          OF     61.000    -16.772      0.000      8.998      0.000      0.000      0.000      0.000      0.000      0.000
          OF     62.000    -16.772      0.000      8.998      0.000      0.000      0.000      0.000      0.000      0.000
          OF     63.000    -16.772      0.000      8.998      0.000      0.000      0.000      0.000      0.000      0.000
          OF     64.000    -16.772      0.000      8.998      0.000      0.000      0.000      0.000      0.000      0.000
          OF     65.000    -16.772      0.000      8.998      0.000      0.000      0.000      0.000      0.000      0.000
          OF     66.000    -16.772      0.000      8.998      0.000      0.000      0.000      0.000      0.000      0.000
          OF     67.000    -16.772      0.000      8.998      0.000      0.000      0.000      0.000      0.000      0.000
          OF     68.000    -16.772      0.000      8.998      0.000      0.000      0.000      0.000      0.000      0.000
          OF     69.000    -16.772      0.000      8.998      0.000      0.000      0.000      0.000      0.000      0.000
          OF     70.000    -16.772      0.000      8.998      0.000      0.000      0.000      0.000      0.000      0.000
          OF     71.000    -16.772      0.000      8.998      0.000      0.000      0.000      0.000      0.000      0.000
          OF     72.000    -16.772      0.000      8.998      0.000      0.000      0.000      0.000      0.000      0.000
          OF     73.000    -16.772      0.000      8.998      0.000      0.000      0.000      0.000      0.000      0.000
          OF     74.000    -16.772      0.000      8.998      0.000      0.000      0.000      0.000      0.000      0.000
          OF     75.000    -16.772      0.000      8.998      0.000      0.000      0.000      0.000      0.000      0.000
          OF     76.000    -16.772      0.000      8.998      0.000      0.000      0.000      0.000      0.000      0.000
          OF     77.000    -16.772      0.000      8.998      0.000      0.000      0.000      0.000      0.000      0.000
          OF     78.000    -16.772      0.000      8.998      0.000      0.000      0.000      0.000      0.000      0.000
          OF     79.000    -16.772      0.000      8.998      0.000      0.000      0.000      0.000      0.000      0.000
          OF     80.000    -16.772      0.000      8.998      0.000      0.000      0.000      0.000      0.000      0.000
          OF     81.000    -16.772      0.000      8.998      0.000      0.000      0.000      0.000      0.000      0.000
          OF     82.000    -16.772      0.000      8.998      0.000      0.000      0.000      0.000      0.000      0.000
          OF     83.000    -16.772      0.000      8.998      0.000      0.000      0.000      0.000      0.000      0.000
          OF     84.000    -16.772      0.000      8.998      0.000      0.000      0.000      0.000      0.000      0.000
          OF     85.000    -16.772      0.000      8.998      0.000      0.000      0.000      0.000      0.000      0.000
          OF     86.000    -16.772      0.000      8.998      0.000      0.000      0.000      0.000      0.000      0.000
          OF     87.000    -16.772      0.000      8.998      0.000      0.000      0.000      0.000      0.000      0.000
          OF     88.000    -16.772      0.000      8.998      0.000      0.000      0.000      0.000      0.000      0.000
          OF     89.000    -16.772      0.000      8.998      0.000      0.000      0.000      0.000      0.000      0.000
          OF     90.000    -16.772      0.000      8.998      0.000      0.000      0.000      0.000      0.000      0.000
          OF     91.000    -16.772      0.000      8.998      0.000      0.000      0.000      0.000      0.014      0.000
          OF     92.000    -16.745      0.000      8.998      0.000      0.000      0.000      0.000      0.055      0.000
          OF     93.000    -16.662      0.000      8.998      0.000      0.000      0.000      0.000      0.083      0.000
          OF     94.000    -16.579      0.000      8.998      0.000      0.000      0.000      0.000      0.083      0.000
          OF     95.000    -16.496      0.000      8.998      0.000      0.000      0.000      0.000      0.083      0.000
          OF     96.000    -16.412      0.000      8.998      0.000      0.000      0.000      0.000      0.083      0.000
          OF     97.000    -16.329      0.000      8.998      0.000      0.000      0.000      0.000      0.083      0.000
          OF     98.000    -16.246      0.000      8.998      0.000      0.000      0.000      0.000      0.083      0.000
          OF     99.000    -16.163      0.000      8.998      0.000      0.000      0.000      0.000      0.083      0.000
          OF    100.000    -16.079      0.000      8.998      0.000      0.000      0.000      0.000      0.083      0.000
          OF    101.000    -15.996      0.000      8.998      0.000      0.000      0.000      0.000      0.083      0.000
          OF    102.000    -15.913      0.000      8.998      0.000      0.000      0.000      0.000      0.083      0.000
          OF    103.000    -15.830      0.000      8.998      0.000      0.000      0.000      0.000      0.083      0.000
          OF    104.000    -15.747      0.000      8.998      0.000      0.000      0.000      0.000      0.083      0.000
          OF    105.000    -15.663      0.000      8.998      0.000      0.000      0.000      0.000      0.083      0.000
          OF    106.000    -15.580      0.000      8.998      0.000      0.000      0.000      0.000      0.083      0.000
          OF    107.000    -15.497      0.000      8.998      0.000      0.000      0.000      0.000      0.083      0.000
          OF    108.000    -15.414      0.000      8.998      0.000      0.000      0.000      0.000      0.083      0.000
          OF    109.000    -15.331      0.000      8.998      0.000      0.000      0.000      0.000      0.083      0.000
          OF    110.000    -15.247      0.000      8.998      0.000      0.000      0.000      0.000      0.083      0.000
          OF    111.000    -15.164      0.000      8.998      0.000      0.000      0.000      0.000      0.083      0.000
          OF    112.000    -15.081      0.000      8.998      0.000      0.000      0.000      0.000      0.083      0.000
          OF    113.000    -14.998      0.000      8.998      0.000      0.000      0.000      0.000      0.083      0.000
          OF    114.000    -14.915      0.000      8.998      0.000      0.000      0.000      0.000      0.083      0.000
          OF    115.000    -14.831      0.000      8.998      0.000      0.000      0.000      0.000      0.083      0.000
          OF    116.000    -14.748      0.000      8.998      0.000      0.000      0.000      0.000      0.083      0.000
          OF    117.000    -14.665      0.000      8.998      0.000      0.000      0.000      0.000      0.083      0.000
          OF    118.000    -14.582      0.000      8.998      0.000      0.000      0.000      0.000      0.083      0.000
          OF    119.000    -14.498      0.000      8.998      0.000      0.000      0.000      0.000      0.083      0.000
          OF    120.000    -14.415      0.000      8.998      0.000      0.000      0.000      0.000      0.083      0.000
          OF    121.000    -14.332      0.000      8.998      0.000      0.000      0.000      0.000      0.083      0.000
          OF    122.000    -14.249      0.000      8.998      0.000      0.000      0.000      0.000      0.083      0.000
          OF    123.000    -14.165      0.000      8.998      0.000      0.000      0.000      0.000      0.083      0.000
          OF    124.000    -14.082      0.000      8.998      0.000      0.000      0.000      0.000      0.083      0.000
          OF    125.000    -13.999      0.000      8.998      0.000      0.000      0.000      0.000      0.083      0.000
          OF    126.000    -13.916      0.000      8.998      0.000      0.000      0.000      0.000      0.083      0.000
          OF    127.000    -13.833      0.000      8.998      0.000      0.000      0.000      0.000      0.083      0.000
          OF    128.000    -13.749      0.000      8.998      0.000      0.000      0.000      0.000      0.083      0.000
          OF    129.000    -13.666      0.000      8.998      0.000      0.000      0.000      0.000      0.083      0.000
          OF    130.000    -13.583      0.000      8.998      0.000      0.000      0.000      0.000      0.083      0.000
          OF    131.000    -13.500      0.000      8.998      0.000      0.000      0.000      0.000      0.083      0.000
          OF    132.000    -13.416      0.000      8.998      0.000      0.000      0.000      0.000      0.083      0.000
          OF    133.000    -13.333      0.000      8.998      0.000      0.000      0.000      0.000      0.083      0.000
          OF    134.000    -13.250      0.000      8.998      0.000      0.000      0.000      0.000      0.083      0.000
          OF    135.000    -13.167      0.000      8.998      0.000      0.000      0.000      0.000      0.083      0.000
          OF    136.000    -13.084      0.000      8.998      0.000      0.000      0.000      0.000      0.083      0.000
          OF    137.000    -13.000      0.000      8.998      0.000      0.000      0.000      0.000      0.083      0.000
          OF    138.000    -12.917      0.000      8.998      0.000      0.000      0.000      0.000      0.083      0.000
          OF    139.000    -12.834      0.000      8.998      0.000      0.000      0.000      0.000      0.083      0.000
          OF    140.000    -12.751      0.000      8.998      0.000      0.000      0.000      0.000      0.083      0.000
          OF    141.000    -12.667      0.000      8.998      0.000      0.000      0.000      0.000      0.083      0.000
          OF    142.000    -12.584      0.000      8.998      0.000      0.000      0.000      0.000      0.083      0.000
          OF    143.000    -12.501      0.000      8.998      0.000      0.000      0.000      0.000      0.083      0.000
          OF    144.000    -12.418      0.000      8.998      0.000      0.000      0.000      0.000      0.083      0.000
          OF    145.000    -12.335      0.000      8.998      0.000      0.000      0.000      0.000      0.083      0.000
          OF    146.000    -12.251      0.000      8.998      0.000      0.000      0.000      0.000      0.083      0.000
          OF    147.000    -12.168      0.000      8.998      0.000      0.000      0.000      0.000      0.083      0.000
          OF    148.000    -12.085      0.000      8.998      0.000      0.000      0.000      0.000      0.083      0.000
          OF    149.000    -12.002      0.000      8.998      0.000      0.000      0.000      0.000      0.083      0.000
          OF    150.000    -11.918      0.000      8.999      0.000      0.000      0.000      0.000      0.083      0.000
          OF    151.000    -11.835      0.000      8.999      0.000      0.000      0.000      0.000      0.083      0.000
          OF    152.000    -11.752      0.000      8.999      0.000      0.000      0.000      0.000      0.083      0.000
          OF    153.000    -11.669      0.000      8.999      0.000      0.000      0.000      0.000      0.083      0.000
          OF    154.000    -11.585      0.000      8.999      0.000      0.000      0.000      0.000      0.083      0.000
          OF    155.000    -11.502      0.000      8.999      0.000      0.000      0.000      0.000      0.093      0.000
          OF    156.000    -11.399      0.000      8.999      0.000      0.000      0.000      0.000      0.107      0.000
          OF    157.000    -11.288      0.000      8.998      0.000      0.000      0.000      0.000      0.111      0.000
          OF    158.000    -11.178      0.000      8.998      0.000      0.000      0.000      0.000      0.110      0.000
          OF    159.000    -11.068      0.000      8.998      0.000      0.000      0.000      0.000      0.110      0.000
          OF    160.000    -10.958      0.000      8.998      0.000      0.000      0.000      0.000      0.111      0.000
          OF    161.000    -10.847      0.000      8.998      0.000      0.000      0.000      0.000      0.111      0.000
          OF    162.000    -10.737      0.000      8.998      0.000      0.000      0.000      0.000      0.110      0.000
          OF    163.000    -10.627      0.000      8.998      0.000      0.000      0.000      0.000      0.110      0.000
          OF    164.000    -10.517      0.000      8.998      0.000      0.000      0.000      0.000      0.110      0.000
          OF    165.000    -10.407      0.000      8.998      0.000      0.000      0.000      0.000      0.110      0.000
          OF    166.000    -10.297      0.000      8.998      0.000      0.000      0.000      0.000      0.111      0.000
          OF    167.000    -10.186      0.000      8.998      0.000      0.000      0.000      0.000      0.111      0.000
          OF    168.000    -10.076      0.000      8.998      0.000      0.000      0.000      0.000      0.110      0.000
          OF    169.000     -9.966      0.000      8.998      0.000      0.000      0.000      0.000      0.110      0.000
          OF    170.000     -9.856      0.000      8.998      0.000      0.000      0.000      0.000      0.110      0.000
          OF    171.000     -9.746      0.000      8.998      0.000      0.000      0.000      0.000      0.110      0.000
          OF    172.000     -9.636      0.000      8.998      0.000      0.000      0.000      0.000      0.110      0.000
          OF    173.000     -9.525      0.000      8.998      0.000      0.000      0.000      0.000      0.110      0.000
          OF    174.000     -9.415      0.000      8.998      0.000      0.000      0.000      0.000      0.110      0.000
          OF    175.000     -9.305      0.000      8.998      0.000      0.000      0.000      0.000      0.110      0.000
          OF    176.000     -9.195      0.000      8.998      0.000      0.000      0.000      0.000      0.110      0.000
          OF    177.000     -9.085      0.000      8.998      0.000      0.000      0.000      0.000      0.110      0.000
          OF    178.000     -8.975      0.000      8.998      0.000      0.000      0.000      0.000      0.110      0.000
          OF    179.000     -8.865      0.000      8.998      0.000      0.000      0.000      0.000      0.110      0.000
          OF    180.000     -8.754      0.000      8.998      0.000      0.000      0.000      0.000      0.110      0.000
          OF    181.000     -8.644      0.000      8.998      0.000      0.000      0.000      0.000      0.110      0.000
          OF    182.000     -8.534      0.000      8.998      0.000      0.000      0.000      0.000      0.110      0.000
          OF    183.000     -8.424      0.000      8.998      0.000      0.000      0.000      0.000      0.110      0.000
          OF    184.000     -8.313      0.000      8.998      0.000      0.000      0.000      0.000      0.110      0.000
          OF    185.000     -8.203      0.000      8.997      0.000      0.000      0.000      0.000      0.110      0.000
          OF    186.000     -8.093      0.000      8.997      0.000      0.000      0.000      0.000      0.110      0.000
          OF    187.000     -7.983      0.000      8.997      0.000      0.000      0.000      0.000      0.110      0.000
          OF    188.000     -7.873      0.000      8.997      0.000      0.000      0.000      0.000      0.110      0.000
          OF    189.000     -7.762      0.000      8.997      0.000      0.000      0.000      0.000      0.110      0.000
          OF    190.000     -7.652      0.000      8.997      0.000      0.000      0.000      0.000      0.110      0.000
          OF    191.000     -7.542      0.000      8.997      0.000      0.000      0.000      0.000      0.110      0.000
          OF    192.000     -7.432      0.000      8.997      0.000      0.000      0.000      0.000      0.110      0.000
          OF    193.000     -7.321      0.000      8.997      0.000      0.000      0.000      0.000      0.110      0.000
          OF    194.000     -7.211      0.000      8.997      0.000      0.000      0.000      0.000      0.110      0.000
          OF    195.000     -7.101      0.000      8.997      0.000      0.000      0.000      0.000      0.110      0.000
          OF    196.000     -6.991      0.000      8.997      0.000      0.000      0.000      0.000      0.110      0.000
          OF    197.000     -6.881      0.000      8.997      0.000      0.000      0.000      0.000      0.110      0.000
          OF    198.000     -6.771      0.000      8.997      0.000      0.000      0.000      0.000      0.110      0.000
          OF    199.000     -6.661      0.000      8.997      0.000      0.000      0.000      0.000      0.110      0.000
          OF    200.000     -6.550      0.000      8.997      0.000      0.000      0.000      0.000      0.110      0.000
          OF    201.000     -6.440      0.000      8.997      0.000      0.000      0.000      0.000      0.110      0.000
          OF    202.000     -6.330      0.000      8.997      0.000      0.000      0.000      0.000      0.110      0.000
          OF    203.000     -6.220      0.000      8.997      0.000      0.000      0.000      0.000      0.110      0.000
          OF    204.000     -6.109      0.000      8.997      0.000      0.000      0.000      0.000      0.110      0.000
          OF    205.000     -5.999      0.000      8.997      0.000      0.000      0.000      0.000      0.110      0.000
          OF    206.000     -5.889      0.000      8.997      0.000      0.000      0.000      0.000      0.110      0.000
          OF    207.000     -5.779      0.000      8.997      0.000      0.000      0.000      0.000      0.110      0.000
          OF    208.000     -5.669      0.000      8.997      0.000      0.000      0.000      0.000      0.110      0.000
          OF    209.000     -5.558      0.000      8.997      0.000      0.000      0.000      0.000      0.110      0.000
          OF    210.000     -5.448      0.000      8.997      0.000      0.000      0.000      0.000      0.110      0.000
          OF    211.000     -5.338      0.000      8.996      0.000      0.000      0.000      0.000      0.110      0.000
          OF    212.000     -5.228      0.000      8.996      0.000      0.000      0.000      0.000      0.110      0.000
          OF    213.000     -5.117      0.000      8.996      0.000      0.000      0.000      0.000      0.110      0.000
          OF    214.000     -5.007      0.000      8.996      0.000      0.000      0.000      0.000      0.110      0.000
          OF    215.000     -4.897      0.000      8.996      0.000      0.000      0.000      0.000      0.110      0.000
          OF    216.000     -4.787      0.000      8.996      0.000      0.000      0.000      0.000      0.110      0.000
          OF    217.000     -4.677      0.000      8.996      0.000      0.000      0.000      0.000      0.110      0.000
          OF    218.000     -4.567      0.000      8.996      0.000      0.000      0.000      0.000      0.110      0.000
          OF    219.000     -4.456      0.000      8.996      0.000      0.000      0.000      0.000      0.110      0.000
          OF    220.000     -4.346      0.000      8.996      0.000      0.000      0.000      0.000      0.096      0.000
          OF    221.000     -4.264      0.000      8.996      0.000      0.000      0.000      0.000      0.043      0.000
          OF    222.000     -4.260      0.000      8.996      0.000      0.000      0.000      0.000      0.004      0.000
          OF    223.000     -4.255      0.000      8.996      0.000      0.000      0.000      0.000      0.004      0.000
          OF    224.000     -4.251      0.000      8.996      0.000      0.000      0.000      0.000      0.004      0.000
          OF    225.000     -4.247      0.000      8.996      0.000      0.000      0.000      0.000      0.004      0.000
          OF    226.000     -4.242      0.000      8.996      0.000      0.000      0.000      0.000      0.004      0.000
          OF    227.000     -4.238      0.000      8.996      0.000      0.000      0.000      0.000      0.004      0.000
          OF    228.000     -4.234      0.000      8.996      0.000      0.000      0.000      0.000      0.004      0.000
          OF    229.000     -4.229      0.000      8.996      0.000      0.000      0.000      0.000      0.004      0.000
          OF    230.000     -4.225      0.000      8.996      0.000      0.000      0.000      0.000      0.004      0.000
          OF    231.000     -4.220      0.000      8.996      0.000      0.000      0.000      0.000      0.004      0.000
          OF    232.000     -4.216      0.000      8.996      0.000      0.000      0.000      0.000      0.004      0.000
          OF    233.000     -4.212      0.000      8.996      0.000      0.000      0.000      0.000      0.004      0.000
          OF    234.000     -4.207      0.000      8.996      0.000      0.000      0.000      0.000      0.004      0.000
          OF    235.000     -4.203      0.000      8.996      0.000      0.000      0.000      0.000      0.004      0.000
          OF    236.000     -4.199      0.000      8.996      0.000      0.000      0.000      0.000      0.004      0.000
          OF    237.000     -4.194      0.000      8.996      0.000      0.000      0.000      0.000      0.004      0.000
          OF    238.000     -4.190      0.000      8.996      0.000      0.000      0.000      0.000      0.004      0.000
          OF    239.000     -4.185      0.000      8.996      0.000      0.000      0.000      0.000      0.004      0.000
          OF    240.000     -4.181      0.000      8.996      0.000      0.000      0.000      0.000      0.004      0.000
          OF    241.000     -4.176      0.000      8.996      0.000      0.000      0.000      0.000      0.004      0.000
          OF    242.000     -4.172      0.000      8.996      0.000      0.000      0.000      0.000      0.004      0.000
          OF    243.000     -4.168      0.000      8.996      0.000      0.000      0.000      0.000      0.004      0.000
          OF    244.000     -4.163      0.000      8.996      0.000      0.000      0.000      0.000      0.004      0.000
          OF    245.000     -4.159      0.000      8.996      0.000      0.000      0.000      0.000      0.004      0.000
          OF    246.000     -4.155      0.000      8.996      0.000      0.000      0.000      0.000      0.004      0.000
          OF    247.000     -4.150      0.000      8.996      0.000      0.000      0.000      0.000      0.004      0.000
          OF    248.000     -4.146      0.000      8.996      0.000      0.000      0.000      0.000      0.004      0.000
          OF    249.000     -4.141      0.000      8.995      0.000      0.000      0.000      0.000      0.004      0.000
          OF    250.000     -4.137      0.000      8.995      0.000      0.000      0.000      0.000      0.004      0.000
          OF    251.000     -4.133      0.000      8.995      0.000      0.000      0.000      0.000      0.004      0.000
          OF    252.000     -4.128      0.000      8.995      0.000      0.000      0.000      0.000      0.004      0.000
          OF    253.000     -4.124      0.000      8.995      0.000      0.000      0.000      0.000      0.004      0.000
          OF    254.000     -4.120      0.000      8.995      0.000      0.000      0.000      0.000      0.004      0.000
          OF    255.000     -4.115      0.000      8.995      0.000      0.000      0.000      0.000      0.004      0.000
          OF    256.000     -4.111      0.000      8.995      0.000      0.000      0.000      0.000      0.004      0.000
          OF    257.000     -4.106      0.000      8.995      0.000      0.000      0.000      0.000      0.004      0.000
          OF    258.000     -4.102      0.000      8.995      0.000      0.000      0.000      0.000      0.004      0.000
          OF    259.000     -4.098      0.000      8.995      0.000      0.000      0.000      0.000      0.004      0.000
          OF    260.000     -4.093      0.000      8.995      0.000      0.000      0.000      0.000      0.004      0.000
          OF    261.000     -4.089      0.000      8.995      0.000      0.000      0.000      0.000      0.004      0.000
          OF    262.000     -4.084      0.000      8.995      0.000      0.000      0.000      0.000      0.004      0.000
          OF    263.000     -4.080      0.000      8.995      0.000      0.000      0.000      0.000      0.004      0.000
          OF    264.000     -4.076      0.000      8.995      0.000      0.000      0.000      0.000      0.004      0.000
          OF    265.000     -4.071      0.000      8.995      0.000      0.000      0.000      0.000      0.004      0.000
          OF    266.000     -4.067      0.000      8.995      0.000      0.000      0.000      0.000      0.004      0.000
          OF    267.000     -4.062      0.000      8.995      0.000      0.000      0.000      0.000      0.004      0.000
          OF    268.000     -4.058      0.000      8.995      0.000      0.000      0.000      0.000      0.004      0.000
          OF    269.000     -4.054      0.000      8.995      0.000      0.000      0.000      0.000      0.004      0.000
          OF    270.000     -4.049      0.000      8.995      0.000      0.000      0.000      0.000      0.004      0.000
          OF    271.000     -4.045      0.000      8.995      0.000      0.000      0.000      0.000      0.004      0.000
          OF    272.000     -4.041      0.000      8.995      0.000      0.000      0.000      0.000      0.004      0.000
          OF    273.000     -4.036      0.000      8.995      0.000      0.000      0.000      0.000      0.004      0.000
          OF    274.000     -4.032      0.000      8.995      0.000      0.000      0.000      0.000      0.004      0.000
          OF    275.000     -4.027      0.000      8.995      0.000      0.000      0.000      0.000      0.004      0.000
          OF    276.000     -4.023      0.000      8.995      0.000      0.000      0.000      0.000      0.004      0.000
          OF    277.000     -4.019      0.000      8.995      0.000      0.000      0.000      0.000      0.004      0.000
          OF    278.000     -4.014      0.000      8.995      0.000      0.000      0.000      0.000      0.004      0.000
          OF    279.000     -4.010      0.000      8.995      0.000      0.000      0.000      0.000      0.004      0.000
          OF    280.000     -4.005      0.000      8.995      0.000      0.000      0.000      0.000      0.004      0.000
          OF    281.000     -4.001      0.000      8.995      0.000      0.000      0.000      0.000      0.004      0.000
          OF    282.000     -3.997      0.000      8.995      0.000      0.000      0.000      0.000      0.004      0.000
          OF    283.000     -3.992      0.000      8.995      0.000      0.000      0.000      0.000      0.004      0.000
          OF    284.000     -3.988      0.000      8.995      0.000      0.000      0.000      0.000      0.004      0.000
          OF    285.000     -3.984      0.000      8.995      0.000      0.000      0.000      0.000      0.014      0.000
          OF    286.000     -3.961      0.000      8.995      0.000      0.000      0.000      0.000      0.036      0.000
          OF    287.000     -3.912      0.000      8.995      0.000      0.000      0.000      0.000      0.049      0.000
          OF    288.000     -3.863      0.000      8.995      0.000      0.000      0.000      0.000      0.049      0.000
          OF    289.000     -3.814      0.000      8.995      0.000      0.000      0.000      0.000      0.049      0.000
          OF    290.000     -3.765      0.000      8.996      0.000      0.000      0.000      0.000      0.049      0.000
          OF    291.000     -3.716      0.000      8.996      0.000      0.000      0.000      0.000      0.049      0.000
          OF    292.000     -3.667      0.000      8.996      0.000      0.000      0.000      0.000      0.049      0.000
          OF    293.000     -3.618      0.000      8.996      0.000      0.000      0.000      0.000      0.049      0.000
          OF    294.000     -3.569      0.000      8.996      0.000      0.000      0.000      0.000      0.049      0.000
          OF    295.000     -3.520      0.000      8.996      0.000      0.000      0.000      0.000      0.049      0.000
          OF    296.000     -3.471      0.000      8.997      0.000      0.000      0.000      0.000      0.049      0.000
          OF    297.000     -3.422      0.000      8.997      0.000      0.000      0.000      0.000      0.049      0.000
          OF    298.000     -3.373      0.000      8.997      0.000      0.000      0.000      0.000      0.049      0.000
          OF    299.000     -3.324      0.000      8.997      0.000      0.000      0.000      0.000      0.049      0.000
          OF    300.000     -3.276      0.000      8.997      0.000      0.000      0.000      0.000      0.049      0.000
          OF    301.000     -3.227      0.000      8.997      0.000      0.000      0.000      0.000      0.049      0.000
          OF    302.000     -3.178      0.000      8.998      0.000      0.000      0.000      0.000      0.049      0.000
          OF    303.000     -3.129      0.000      8.998      0.000      0.000      0.000      0.000      0.049      0.000
          OF    304.000     -3.080      0.000      8.998      0.000      0.000      0.000      0.000      0.049      0.000
          OF    305.000     -3.031      0.000      8.998      0.000      0.000      0.000      0.000      0.049      0.000
          OF    306.000     -2.982      0.000      8.998      0.000      0.000      0.000      0.000      0.049      0.000
          OF    307.000     -2.933      0.000      8.998      0.000      0.000      0.000      0.000      0.049      0.000
          OF    308.000     -2.884      0.000      8.998      0.000      0.000      0.000      0.000      0.049      0.000
          OF    309.000     -2.835      0.000      8.999      0.000      0.000      0.000      0.000      0.049      0.000
          OF    310.000     -2.786      0.000      8.999      0.000      0.000      0.000      0.000      0.049      0.000
          OF    311.000     -2.737      0.000      8.999      0.000      0.000      0.000      0.000      0.049      0.000
          OF    312.000     -2.688      0.000      8.999      0.000      0.000      0.000      0.000      0.049      0.000
          OF    313.000     -2.639      0.000      8.999      0.000      0.000      0.000      0.000      0.049      0.000
          OF    314.000     -2.591      0.000      8.999      0.000      0.000      0.000      0.000      0.049      0.000
          OF    315.000     -2.542      0.000      9.000      0.000      0.000      0.000      0.000      0.049      0.000
          OF    316.000     -2.493      0.000      9.000      0.000      0.000      0.000      0.000      0.049      0.000
          OF    317.000     -2.444      0.000      9.000      0.000      0.000      0.000      0.000      0.049      0.000
          OF    318.000     -2.395      0.000      9.000      0.000      0.000      0.000      0.000      0.049      0.000
          OF    319.000     -2.346      0.000      9.000      0.000      0.000      0.000      0.000      0.049      0.000
          OF    320.000     -2.297      0.000      9.000      0.000      0.000      0.000      0.000      0.049      0.000
          OF    321.000     -2.248      0.000      9.000      0.000      0.000      0.000      0.000      0.049      0.000
          OF    322.000     -2.199      0.000      9.001      0.000      0.000      0.000      0.000      0.049      0.000
          OF    323.000     -2.150      0.000      9.001      0.000      0.000      0.000      0.000      0.049      0.000
          OF    324.000     -2.101      0.000      9.001      0.000      0.000      0.000      0.000      0.049      0.000
          OF    325.000     -2.052      0.000      9.001      0.000      0.000      0.000      0.000      0.049      0.000
          OF    326.000     -2.003      0.000      9.001      0.000      0.000      0.000      0.000      0.049      0.000
          OF    327.000     -1.954      0.000      9.001      0.000      0.000      0.000      0.000      0.049      0.000
          OF    328.000     -1.905      0.000      9.002      0.000      0.000      0.000      0.000      0.049      0.000
          OF    329.000     -1.856      0.000      9.002      0.000      0.000      0.000      0.000      0.049      0.000
          OF    330.000     -1.808      0.000      9.002      0.000      0.000      0.000      0.000      0.049      0.000
          OF    331.000     -1.758      0.000      9.002      0.000      0.000      0.000      0.000      0.049      0.000
          OF    332.000     -1.710      0.000      9.002      0.000      0.000      0.000      0.000      0.049      0.000
          OF    333.000     -1.661      0.000      9.002      0.000      0.000      0.000      0.000      0.051      0.000
          OF    334.000     -1.607      0.000      9.002      0.000      0.000      0.000      0.000      0.058      0.000
          OF    335.000     -1.544      0.000      9.003      0.000      0.000      0.000      0.000      0.063      0.000
          OF    336.000     -1.481      0.000      9.003      0.000      0.000      0.000      0.000      0.063      0.000
          OF    337.000     -1.417      0.000      9.003      0.000      0.000      0.000      0.000      0.063      0.000
          OF    338.000     -1.354      0.000      9.003      0.000      0.000      0.000      0.000      0.063      0.000
          OF    339.000     -1.291      0.000      9.003      0.000      0.000      0.000      0.000      0.063      0.000
          OF    340.000     -1.227      0.000      9.004      0.000      0.000      0.000      0.000      0.063      0.000
          OF    341.000     -1.164      0.000      9.004      0.000      0.000      0.000      0.000      0.063      0.000
          OF    342.000     -1.101      0.000      9.004      0.000      0.000      0.000      0.000      0.063      0.000
          OF    343.000     -1.038      0.000      9.004      0.000      0.000      0.000      0.000      0.063      0.000
          OF    344.000     -0.974      0.000      9.004      0.000      0.000      0.000      0.000      0.063      0.000
          OF    345.000     -0.911      0.000      9.005      0.000      0.000      0.000      0.000      0.063      0.000
          OF    346.000     -0.847      0.000      9.005      0.000      0.000      0.000      0.000      0.063      0.000
          OF    347.000     -0.784      0.000      9.005      0.000      0.000      0.000      0.000      0.063      0.000
          OF    348.000     -0.721      0.000      9.005      0.000      0.000      0.000      0.000      0.063      0.000
          OF    349.000     -0.657      0.000      9.005      0.000      0.000      0.000      0.000      0.063      0.000
          OF    350.000     -0.594      0.000      9.005      0.000      0.000      0.000      0.000      0.063      0.000
          OF    351.000     -0.531      0.000      9.006      0.000      0.000      0.000      0.000      0.063      0.000
          OF    352.000     -0.468      0.000      9.006      0.000      0.000      0.000      0.000      0.063      0.000
          OF    353.000     -0.404      0.000      9.006      0.000      0.000      0.000      0.000      0.063      0.000
          OF    354.000     -0.341      0.000      9.006      0.000      0.000      0.000      0.000      0.063      0.000
          OF    355.000     -0.278      0.000      9.007      0.000      0.000      0.000      0.000      0.063      0.000
          OF    356.000     -0.214      0.000      9.007      0.000      0.000      0.000      0.000      0.063      0.000
          OF    357.000     -0.151      0.000      9.007      0.000      0.000      0.000      0.000      0.063      0.000
          OF    358.000     -0.088      0.000      9.007      0.000      0.000      0.000      0.000      0.063      0.000
          OF    359.000     -0.024      0.000      9.007      0.000      0.000      0.000      0.000      0.029      0.000
          IF    361.500      0.013      0.000      9.008      0.000      0.000      0.000      0.000      0.094      0.000
          IF    366.000      0.636      0.000      9.009      0.000      0.000      0.000      0.000      0.118      0.000
          IF    372.500      1.312      0.000      9.010      0.000      0.000      0.000      0.000      0.070      0.000
          IF    378.000      1.476      0.000      9.011      0.000      0.000      0.000      0.000      0.069      0.000
          IF    381.500      1.936      0.000      9.012      0.000      0.000      0.000      0.000      0.061      0.000
          IF    385.000      1.903      0.000      9.012      0.000      0.000      0.000      0.000     -0.014      0.000
          IF    388.500      1.837      0.000      9.013      0.000      0.000      0.000      0.000      0.059      0.000
          IF    395.500      2.526      0.000      9.013      0.000      0.000      0.000      0.000      0.107      0.000
          IF    404.500      3.543      0.000      9.013      0.000      0.000      0.000      0.000      0.108      0.000
          IF    406.800      3.750      0.000      9.000      0.000      0.000      0.000      0.000      0.089      0.000
          IF    410.100      4.042      0.000      9.010      0.000      0.000      0.000      0.000      0.058      0.000
          IF    413.400      4.130      0.000      9.026      0.000      0.000      0.000      0.000      0.008      0.000
          IF    416.700      4.097      0.000      9.044      0.000      0.000      0.000      0.000      0.083      0.000
          IF    419.900      4.671      0.000      9.049      0.000      0.000      0.000      0.000      0.177      0.000
          IF    423.200      5.245      0.000      9.060      0.000      0.000      0.000      0.000      0.172      0.000
          IF    426.500      5.806      0.000      9.092      0.000      0.000      0.000      0.000      0.165      0.000
          IF    429.800      6.336      0.000      9.134      0.000      0.000      0.000      0.000      0.175      0.000
          IF    433.100      6.963      0.000      9.182      0.000      0.000      0.000      0.000      0.221      0.000
          IF    436.400      7.791      0.000      9.297      0.000      0.000      0.000      0.000      0.266      0.000
          IF    439.600      8.694      0.000      9.521      0.000      0.000      0.000      0.000      0.298      0.000
          IF    442.200      9.521      0.000      9.521      0.000      0.000      0.000      0.000      0.318      0.000
          ET      0.000      0.000      0.000      0.000      0.000      0.000      0.000      0.000      0.000      0.000
1
            END        END      FETCH SURGE ELEV SURGE ELEV    INITIAL    INITIAL                BOTTOM    AVERAGE
        STATION  ELEVATION     LENGTH    10-YEAR   100-YEAR WAVE HEIGHT  W. PERIOD                SLOPE    A-ZONES
  IE      0.000    -15.556      1.000      1.000      8.996      6.996      6.960     56.140     -0.089      0.000
            END        END  NEW SURGE  NEW SURGE                                                 BOTTOM    AVERAGE
        STATION  ELEVATION    10-YEAR   100-YEAR                                                  SLOPE    A-ZONES
  OF      1.000    -15.645      0.000      8.996      0.000      0.000      0.000      0.000     -0.089      0.000
            END        END  NEW SURGE  NEW SURGE                                                 BOTTOM    AVERAGE
        STATION  ELEVATION    10-YEAR   100-YEAR                                                  SLOPE    A-ZONES
  OF      2.000    -15.734      0.000      8.996      0.000      0.000      0.000      0.000     -0.089      0.000
            END        END  NEW SURGE  NEW SURGE                                                 BOTTOM    AVERAGE
        STATION  ELEVATION    10-YEAR   100-YEAR                                                  SLOPE    A-ZONES
  OF      3.000    -15.823      0.000      8.996      0.000      0.000      0.000      0.000     -0.090      0.000
            END        END  NEW SURGE  NEW SURGE                                                 BOTTOM    AVERAGE
        STATION  ELEVATION    10-YEAR   100-YEAR                                                  SLOPE    A-ZONES
  OF      4.000    -15.913      0.000      8.997      0.000      0.000      0.000      0.000     -0.090      0.000
            END        END  NEW SURGE  NEW SURGE                                                 BOTTOM    AVERAGE
        STATION  ELEVATION    10-YEAR   100-YEAR                                                  SLOPE    A-ZONES
  OF      5.000    -16.002      0.000      8.997      0.000      0.000      0.000      0.000     -0.089      0.000
            END        END  NEW SURGE  NEW SURGE                                                 BOTTOM    AVERAGE
        STATION  ELEVATION    10-YEAR   100-YEAR                                                  SLOPE    A-ZONES
  OF      6.000    -16.091      0.000      8.997      0.000      0.000      0.000      0.000     -0.089      0.000
            END        END  NEW SURGE  NEW SURGE                                                 BOTTOM    AVERAGE
        STATION  ELEVATION    10-YEAR   100-YEAR                                                  SLOPE    A-ZONES
  OF      7.000    -16.180      0.000      8.997      0.000      0.000      0.000      0.000     -0.089      0.000
            END        END  NEW SURGE  NEW SURGE                                                 BOTTOM    AVERAGE
        STATION  ELEVATION    10-YEAR   100-YEAR                                                  SLOPE    A-ZONES
  OF      8.000    -16.269      0.000      8.997      0.000      0.000      0.000      0.000     -0.089      0.000
            END        END  NEW SURGE  NEW SURGE                                                 BOTTOM    AVERAGE
        STATION  ELEVATION    10-YEAR   100-YEAR                                                  SLOPE    A-ZONES
  OF      9.000    -16.357      0.000      8.997      0.000      0.000      0.000      0.000     -0.089      0.000
            END        END  NEW SURGE  NEW SURGE                                                 BOTTOM    AVERAGE
        STATION  ELEVATION    10-YEAR   100-YEAR                                                  SLOPE    A-ZONES
  OF     10.000    -16.447      0.000      8.997      0.000      0.000      0.000      0.000     -0.090      0.000
            END        END  NEW SURGE  NEW SURGE                                                 BOTTOM    AVERAGE
        STATION  ELEVATION    10-YEAR   100-YEAR                                                  SLOPE    A-ZONES
  OF     11.000    -16.536      0.000      8.997      0.000      0.000      0.000      0.000     -0.089      0.000
            END        END  NEW SURGE  NEW SURGE                                                 BOTTOM    AVERAGE
        STATION  ELEVATION    10-YEAR   100-YEAR                                                  SLOPE    A-ZONES
  OF     12.000    -16.625      0.000      8.997      0.000      0.000      0.000      0.000     -0.089      0.000
            END        END  NEW SURGE  NEW SURGE                                                 BOTTOM    AVERAGE
        STATION  ELEVATION    10-YEAR   100-YEAR                                                  SLOPE    A-ZONES
  OF     13.000    -16.714      0.000      8.997      0.000      0.000      0.000      0.000     -0.074      0.000
            END        END  NEW SURGE  NEW SURGE                                                 BOTTOM    AVERAGE
        STATION  ELEVATION    10-YEAR   100-YEAR                                                  SLOPE    A-ZONES
  OF     14.000    -16.773      0.000      8.997      0.000      0.000      0.000      0.000     -0.030      0.000
            END        END  NEW SURGE  NEW SURGE                                                 BOTTOM    AVERAGE
        STATION  ELEVATION    10-YEAR   100-YEAR                                                  SLOPE    A-ZONES
  OF     15.000    -16.773      0.000      8.997      0.000      0.000      0.000      0.000      0.000      0.000
            END        END  NEW SURGE  NEW SURGE                                                 BOTTOM    AVERAGE
        STATION  ELEVATION    10-YEAR   100-YEAR                                                  SLOPE    A-ZONES
  OF     16.000    -16.773      0.000      8.997      0.000      0.000      0.000      0.000      0.000      0.000
            END        END  NEW SURGE  NEW SURGE                                                 BOTTOM    AVERAGE
        STATION  ELEVATION    10-YEAR   100-YEAR                                                  SLOPE    A-ZONES
  OF     17.000    -16.773      0.000      8.997      0.000      0.000      0.000      0.000      0.000      0.000
            END        END  NEW SURGE  NEW SURGE                                                 BOTTOM    AVERAGE
        STATION  ELEVATION    10-YEAR   100-YEAR                                                  SLOPE    A-ZONES
  OF     18.000    -16.773      0.000      8.997      0.000      0.000      0.000      0.000      0.000      0.000
            END        END  NEW SURGE  NEW SURGE                                                 BOTTOM    AVERAGE
        STATION  ELEVATION    10-YEAR   100-YEAR                                                  SLOPE    A-ZONES
  OF     19.000    -16.773      0.000      8.997      0.000      0.000      0.000      0.000      0.000      0.000
            END        END  NEW SURGE  NEW SURGE                                                 BOTTOM    AVERAGE
        STATION  ELEVATION    10-YEAR   100-YEAR                                                  SLOPE    A-ZONES
  OF     20.000    -16.773      0.000      8.997      0.000      0.000      0.000      0.000      0.000      0.000
            END        END  NEW SURGE  NEW SURGE                                                 BOTTOM    AVERAGE
        STATION  ELEVATION    10-YEAR   100-YEAR                                                  SLOPE    A-ZONES
  OF     21.000    -16.773      0.000      8.997      0.000      0.000      0.000      0.000      0.000      0.000
            END        END  NEW SURGE  NEW SURGE                                                 BOTTOM    AVERAGE
        STATION  ELEVATION    10-YEAR   100-YEAR                                                  SLOPE    A-ZONES
  OF     22.000    -16.773      0.000      8.997      0.000      0.000      0.000      0.000      0.000      0.000
            END        END  NEW SURGE  NEW SURGE                                                 BOTTOM    AVERAGE
        STATION  ELEVATION    10-YEAR   100-YEAR                                                  SLOPE    A-ZONES
  OF     23.000    -16.773      0.000      8.997      0.000      0.000      0.000      0.000      0.000      0.000
            END        END  NEW SURGE  NEW SURGE                                                 BOTTOM    AVERAGE
        STATION  ELEVATION    10-YEAR   100-YEAR                                                  SLOPE    A-ZONES
  OF     24.000    -16.773      0.000      8.997      0.000      0.000      0.000      0.000      0.000      0.000
            END        END  NEW SURGE  NEW SURGE                                                 BOTTOM    AVERAGE
        STATION  ELEVATION    10-YEAR   100-YEAR                                                  SLOPE    A-ZONES
  OF     25.000    -16.773      0.000      8.997      0.000      0.000      0.000      0.000      0.000      0.000
            END        END  NEW SURGE  NEW SURGE                                                 BOTTOM    AVERAGE
        STATION  ELEVATION    10-YEAR   100-YEAR                                                  SLOPE    A-ZONES
  OF     26.000    -16.773      0.000      8.997      0.000      0.000      0.000      0.000      0.000      0.000
            END        END  NEW SURGE  NEW SURGE                                                 BOTTOM    AVERAGE
        STATION  ELEVATION    10-YEAR   100-YEAR                                                  SLOPE    A-ZONES
  OF     27.000    -16.773      0.000      8.997      0.000      0.000      0.000      0.000      0.000      0.000
            END        END  NEW SURGE  NEW SURGE                                                 BOTTOM    AVERAGE
        STATION  ELEVATION    10-YEAR   100-YEAR                                                  SLOPE    A-ZONES
  OF     28.000    -16.773      0.000      8.997      0.000      0.000      0.000      0.000      0.000      0.000
            END        END  NEW SURGE  NEW SURGE                                                 BOTTOM    AVERAGE
        STATION  ELEVATION    10-YEAR   100-YEAR                                                  SLOPE    A-ZONES
  OF     29.000    -16.773      0.000      8.997      0.000      0.000      0.000      0.000      0.000      0.000
            END        END  NEW SURGE  NEW SURGE                                                 BOTTOM    AVERAGE
        STATION  ELEVATION    10-YEAR   100-YEAR                                                  SLOPE    A-ZONES
  OF     30.000    -16.773      0.000      8.997      0.000      0.000      0.000      0.000      0.000      0.000
            END        END  NEW SURGE  NEW SURGE                                                 BOTTOM    AVERAGE
        STATION  ELEVATION    10-YEAR   100-YEAR                                                  SLOPE    A-ZONES
  OF     31.000    -16.773      0.000      8.997      0.000      0.000      0.000      0.000      0.000      0.000
            END        END  NEW SURGE  NEW SURGE                                                 BOTTOM    AVERAGE
        STATION  ELEVATION    10-YEAR   100-YEAR                                                  SLOPE    A-ZONES
  OF     32.000    -16.773      0.000      8.997      0.000      0.000      0.000      0.000      0.000      0.000
            END        END  NEW SURGE  NEW SURGE                                                 BOTTOM    AVERAGE
        STATION  ELEVATION    10-YEAR   100-YEAR                                                  SLOPE    A-ZONES
  OF     33.000    -16.773      0.000      8.997      0.000      0.000      0.000      0.000      0.000      0.000
            END        END  NEW SURGE  NEW SURGE                                                 BOTTOM    AVERAGE
        STATION  ELEVATION    10-YEAR   100-YEAR                                                  SLOPE    A-ZONES
  OF     34.000    -16.773      0.000      8.997      0.000      0.000      0.000      0.000      0.000      0.000
            END        END  NEW SURGE  NEW SURGE                                                 BOTTOM    AVERAGE
        STATION  ELEVATION    10-YEAR   100-YEAR                                                  SLOPE    A-ZONES
  OF     35.000    -16.773      0.000      8.997      0.000      0.000      0.000      0.000      0.000      0.000
            END        END  NEW SURGE  NEW SURGE                                                 BOTTOM    AVERAGE
        STATION  ELEVATION    10-YEAR   100-YEAR                                                  SLOPE    A-ZONES
  OF     36.000    -16.773      0.000      8.997      0.000      0.000      0.000      0.000      0.000      0.000
            END        END  NEW SURGE  NEW SURGE                                                 BOTTOM    AVERAGE
        STATION  ELEVATION    10-YEAR   100-YEAR                                                  SLOPE    A-ZONES
  OF     37.000    -16.773      0.000      8.997      0.000      0.000      0.000      0.000      0.000      0.000
            END        END  NEW SURGE  NEW SURGE                                                 BOTTOM    AVERAGE
        STATION  ELEVATION    10-YEAR   100-YEAR                                                  SLOPE    A-ZONES
  OF     38.000    -16.773      0.000      8.997      0.000      0.000      0.000      0.000      0.000      0.000
            END        END  NEW SURGE  NEW SURGE                                                 BOTTOM    AVERAGE
        STATION  ELEVATION    10-YEAR   100-YEAR                                                  SLOPE    A-ZONES
  OF     39.000    -16.773      0.000      8.997      0.000      0.000      0.000      0.000      0.000      0.000
            END        END  NEW SURGE  NEW SURGE                                                 BOTTOM    AVERAGE
        STATION  ELEVATION    10-YEAR   100-YEAR                                                  SLOPE    A-ZONES
  OF     40.000    -16.773      0.000      8.997      0.000      0.000      0.000      0.000      0.000      0.000
            END        END  NEW SURGE  NEW SURGE                                                 BOTTOM    AVERAGE
        STATION  ELEVATION    10-YEAR   100-YEAR                                                  SLOPE    A-ZONES
  OF     41.000    -16.773      0.000      8.997      0.000      0.000      0.000      0.000      0.000      0.000
            END        END  NEW SURGE  NEW SURGE                                                 BOTTOM    AVERAGE
        STATION  ELEVATION    10-YEAR   100-YEAR                                                  SLOPE    A-ZONES
  OF     42.000    -16.773      0.000      8.997      0.000      0.000      0.000      0.000      0.001      0.000
            END        END  NEW SURGE  NEW SURGE                                                 BOTTOM    AVERAGE
        STATION  ELEVATION    10-YEAR   100-YEAR                                                  SLOPE    A-ZONES
  OF     43.000    -16.772      0.000      8.997      0.000      0.000      0.000      0.000      0.001      0.000
            END        END  NEW SURGE  NEW SURGE                                                 BOTTOM    AVERAGE
        STATION  ELEVATION    10-YEAR   100-YEAR                                                  SLOPE    A-ZONES
  OF     44.000    -16.772      0.000      8.997      0.000      0.000      0.000      0.000      0.000      0.000
            END        END  NEW SURGE  NEW SURGE                                                 BOTTOM    AVERAGE
        STATION  ELEVATION    10-YEAR   100-YEAR                                                  SLOPE    A-ZONES
  OF     45.000    -16.772      0.000      8.997      0.000      0.000      0.000      0.000      0.000      0.000
            END        END  NEW SURGE  NEW SURGE                                                 BOTTOM    AVERAGE
        STATION  ELEVATION    10-YEAR   100-YEAR                                                  SLOPE    A-ZONES
  OF     46.000    -16.772      0.000      8.997      0.000      0.000      0.000      0.000      0.000      0.000
            END        END  NEW SURGE  NEW SURGE                                                 BOTTOM    AVERAGE
        STATION  ELEVATION    10-YEAR   100-YEAR                                                  SLOPE    A-ZONES
  OF     47.000    -16.772      0.000      8.997      0.000      0.000      0.000      0.000      0.000      0.000
            END        END  NEW SURGE  NEW SURGE                                                 BOTTOM    AVERAGE
        STATION  ELEVATION    10-YEAR   100-YEAR                                                  SLOPE    A-ZONES
  OF     48.000    -16.772      0.000      8.997      0.000      0.000      0.000      0.000      0.000      0.000
            END        END  NEW SURGE  NEW SURGE                                                 BOTTOM    AVERAGE
        STATION  ELEVATION    10-YEAR   100-YEAR                                                  SLOPE    A-ZONES
  OF     49.000    -16.772      0.000      8.997      0.000      0.000      0.000      0.000      0.000      0.000
            END        END  NEW SURGE  NEW SURGE                                                 BOTTOM    AVERAGE
        STATION  ELEVATION    10-YEAR   100-YEAR                                                  SLOPE    A-ZONES
  OF     50.000    -16.772      0.000      8.997      0.000      0.000      0.000      0.000      0.000      0.000
            END        END  NEW SURGE  NEW SURGE                                                 BOTTOM    AVERAGE
        STATION  ELEVATION    10-YEAR   100-YEAR                                                  SLOPE    A-ZONES
  OF     51.000    -16.772      0.000      8.997      0.000      0.000      0.000      0.000      0.000      0.000
            END        END  NEW SURGE  NEW SURGE                                                 BOTTOM    AVERAGE
        STATION  ELEVATION    10-YEAR   100-YEAR                                                  SLOPE    A-ZONES
  OF     52.000    -16.772      0.000      8.997      0.000      0.000      0.000      0.000      0.000      0.000
            END        END  NEW SURGE  NEW SURGE                                                 BOTTOM    AVERAGE
        STATION  ELEVATION    10-YEAR   100-YEAR                                                  SLOPE    A-ZONES
  OF     53.000    -16.772      0.000      8.998      0.000      0.000      0.000      0.000      0.000      0.000
            END        END  NEW SURGE  NEW SURGE                                                 BOTTOM    AVERAGE
        STATION  ELEVATION    10-YEAR   100-YEAR                                                  SLOPE    A-ZONES
  OF     54.000    -16.772      0.000      8.998      0.000      0.000      0.000      0.000      0.000      0.000
            END        END  NEW SURGE  NEW SURGE                                                 BOTTOM    AVERAGE
        STATION  ELEVATION    10-YEAR   100-YEAR                                                  SLOPE    A-ZONES
  OF     55.000    -16.772      0.000      8.998      0.000      0.000      0.000      0.000      0.000      0.000
            END        END  NEW SURGE  NEW SURGE                                                 BOTTOM    AVERAGE
        STATION  ELEVATION    10-YEAR   100-YEAR                                                  SLOPE    A-ZONES
  OF     56.000    -16.772      0.000      8.998      0.000      0.000      0.000      0.000      0.000      0.000
            END        END  NEW SURGE  NEW SURGE                                                 BOTTOM    AVERAGE
        STATION  ELEVATION    10-YEAR   100-YEAR                                                  SLOPE    A-ZONES
  OF     57.000    -16.772      0.000      8.998      0.000      0.000      0.000      0.000      0.000      0.000
            END        END  NEW SURGE  NEW SURGE                                                 BOTTOM    AVERAGE
        STATION  ELEVATION    10-YEAR   100-YEAR                                                  SLOPE    A-ZONES
  OF     58.000    -16.772      0.000      8.998      0.000      0.000      0.000      0.000      0.000      0.000
            END        END  NEW SURGE  NEW SURGE                                                 BOTTOM    AVERAGE
        STATION  ELEVATION    10-YEAR   100-YEAR                                                  SLOPE    A-ZONES
  OF     59.000    -16.772      0.000      8.998      0.000      0.000      0.000      0.000      0.000      0.000
            END        END  NEW SURGE  NEW SURGE                                                 BOTTOM    AVERAGE
        STATION  ELEVATION    10-YEAR   100-YEAR                                                  SLOPE    A-ZONES
  OF     60.000    -16.772      0.000      8.998      0.000      0.000      0.000      0.000      0.000      0.000
            END        END  NEW SURGE  NEW SURGE                                                 BOTTOM    AVERAGE
        STATION  ELEVATION    10-YEAR   100-YEAR                                                  SLOPE    A-ZONES
  OF     61.000    -16.772      0.000      8.998      0.000      0.000      0.000      0.000      0.000      0.000
            END        END  NEW SURGE  NEW SURGE                                                 BOTTOM    AVERAGE
        STATION  ELEVATION    10-YEAR   100-YEAR                                                  SLOPE    A-ZONES
  OF     62.000    -16.772      0.000      8.998      0.000      0.000      0.000      0.000      0.000      0.000
            END        END  NEW SURGE  NEW SURGE                                                 BOTTOM    AVERAGE
        STATION  ELEVATION    10-YEAR   100-YEAR                                                  SLOPE    A-ZONES
  OF     63.000    -16.772      0.000      8.998      0.000      0.000      0.000      0.000      0.000      0.000
            END        END  NEW SURGE  NEW SURGE                                                 BOTTOM    AVERAGE
        STATION  ELEVATION    10-YEAR   100-YEAR                                                  SLOPE    A-ZONES
  OF     64.000    -16.772      0.000      8.998      0.000      0.000      0.000      0.000      0.000      0.000
            END        END  NEW SURGE  NEW SURGE                                                 BOTTOM    AVERAGE
        STATION  ELEVATION    10-YEAR   100-YEAR                                                  SLOPE    A-ZONES
  OF     65.000    -16.772      0.000      8.998      0.000      0.000      0.000      0.000      0.000      0.000
            END        END  NEW SURGE  NEW SURGE                                                 BOTTOM    AVERAGE
        STATION  ELEVATION    10-YEAR   100-YEAR                                                  SLOPE    A-ZONES
  OF     66.000    -16.772      0.000      8.998      0.000      0.000      0.000      0.000      0.000      0.000
            END        END  NEW SURGE  NEW SURGE                                                 BOTTOM    AVERAGE
        STATION  ELEVATION    10-YEAR   100-YEAR                                                  SLOPE    A-ZONES
  OF     67.000    -16.772      0.000      8.998      0.000      0.000      0.000      0.000      0.000      0.000
            END        END  NEW SURGE  NEW SURGE                                                 BOTTOM    AVERAGE
        STATION  ELEVATION    10-YEAR   100-YEAR                                                  SLOPE    A-ZONES
  OF     68.000    -16.772      0.000      8.998      0.000      0.000      0.000      0.000      0.000      0.000
            END        END  NEW SURGE  NEW SURGE                                                 BOTTOM    AVERAGE
        STATION  ELEVATION    10-YEAR   100-YEAR                                                  SLOPE    A-ZONES
  OF     69.000    -16.772      0.000      8.998      0.000      0.000      0.000      0.000      0.000      0.000
            END        END  NEW SURGE  NEW SURGE                                                 BOTTOM    AVERAGE
        STATION  ELEVATION    10-YEAR   100-YEAR                                                  SLOPE    A-ZONES
  OF     70.000    -16.772      0.000      8.998      0.000      0.000      0.000      0.000      0.000      0.000
            END        END  NEW SURGE  NEW SURGE                                                 BOTTOM    AVERAGE
        STATION  ELEVATION    10-YEAR   100-YEAR                                                  SLOPE    A-ZONES
  OF     71.000    -16.772      0.000      8.998      0.000      0.000      0.000      0.000      0.000      0.000
            END        END  NEW SURGE  NEW SURGE                                                 BOTTOM    AVERAGE
        STATION  ELEVATION    10-YEAR   100-YEAR                                                  SLOPE    A-ZONES
  OF     72.000    -16.772      0.000      8.998      0.000      0.000      0.000      0.000      0.000      0.000
            END        END  NEW SURGE  NEW SURGE                                                 BOTTOM    AVERAGE
        STATION  ELEVATION    10-YEAR   100-YEAR                                                  SLOPE    A-ZONES
  OF     73.000    -16.772      0.000      8.998      0.000      0.000      0.000      0.000      0.000      0.000
            END        END  NEW SURGE  NEW SURGE                                                 BOTTOM    AVERAGE
        STATION  ELEVATION    10-YEAR   100-YEAR                                                  SLOPE    A-ZONES
  OF     74.000    -16.772      0.000      8.998      0.000      0.000      0.000      0.000      0.000      0.000
            END        END  NEW SURGE  NEW SURGE                                                 BOTTOM    AVERAGE
        STATION  ELEVATION    10-YEAR   100-YEAR                                                  SLOPE    A-ZONES
  OF     75.000    -16.772      0.000      8.998      0.000      0.000      0.000      0.000      0.000      0.000
            END        END  NEW SURGE  NEW SURGE                                                 BOTTOM    AVERAGE
        STATION  ELEVATION    10-YEAR   100-YEAR                                                  SLOPE    A-ZONES
  OF     76.000    -16.772      0.000      8.998      0.000      0.000      0.000      0.000      0.000      0.000
            END        END  NEW SURGE  NEW SURGE                                                 BOTTOM    AVERAGE
        STATION  ELEVATION    10-YEAR   100-YEAR                                                  SLOPE    A-ZONES
  OF     77.000    -16.772      0.000      8.998      0.000      0.000      0.000      0.000      0.000      0.000
            END        END  NEW SURGE  NEW SURGE                                                 BOTTOM    AVERAGE
        STATION  ELEVATION    10-YEAR   100-YEAR                                                  SLOPE    A-ZONES
  OF     78.000    -16.772      0.000      8.998      0.000      0.000      0.000      0.000      0.000      0.000
            END        END  NEW SURGE  NEW SURGE                                                 BOTTOM    AVERAGE
        STATION  ELEVATION    10-YEAR   100-YEAR                                                  SLOPE    A-ZONES
  OF     79.000    -16.772      0.000      8.998      0.000      0.000      0.000      0.000      0.000      0.000
            END        END  NEW SURGE  NEW SURGE                                                 BOTTOM    AVERAGE
        STATION  ELEVATION    10-YEAR   100-YEAR                                                  SLOPE    A-ZONES
  OF     80.000    -16.772      0.000      8.998      0.000      0.000      0.000      0.000      0.000      0.000
            END        END  NEW SURGE  NEW SURGE                                                 BOTTOM    AVERAGE
        STATION  ELEVATION    10-YEAR   100-YEAR                                                  SLOPE    A-ZONES
  OF     81.000    -16.772      0.000      8.998      0.000      0.000      0.000      0.000      0.000      0.000
            END        END  NEW SURGE  NEW SURGE                                                 BOTTOM    AVERAGE
        STATION  ELEVATION    10-YEAR   100-YEAR                                                  SLOPE    A-ZONES
  OF     82.000    -16.772      0.000      8.998      0.000      0.000      0.000      0.000      0.000      0.000
            END        END  NEW SURGE  NEW SURGE                                                 BOTTOM    AVERAGE
        STATION  ELEVATION    10-YEAR   100-YEAR                                                  SLOPE    A-ZONES
  OF     83.000    -16.772      0.000      8.998      0.000      0.000      0.000      0.000      0.000      0.000
            END        END  NEW SURGE  NEW SURGE                                                 BOTTOM    AVERAGE
        STATION  ELEVATION    10-YEAR   100-YEAR                                                  SLOPE    A-ZONES
  OF     84.000    -16.772      0.000      8.998      0.000      0.000      0.000      0.000      0.000      0.000
            END        END  NEW SURGE  NEW SURGE                                                 BOTTOM    AVERAGE
        STATION  ELEVATION    10-YEAR   100-YEAR                                                  SLOPE    A-ZONES
  OF     85.000    -16.772      0.000      8.998      0.000      0.000      0.000      0.000      0.000      0.000
            END        END  NEW SURGE  NEW SURGE                                                 BOTTOM    AVERAGE
        STATION  ELEVATION    10-YEAR   100-YEAR                                                  SLOPE    A-ZONES
  OF     86.000    -16.772      0.000      8.998      0.000      0.000      0.000      0.000      0.000      0.000
            END        END  NEW SURGE  NEW SURGE                                                 BOTTOM    AVERAGE
        STATION  ELEVATION    10-YEAR   100-YEAR                                                  SLOPE    A-ZONES
  OF     87.000    -16.772      0.000      8.998      0.000      0.000      0.000      0.000      0.000      0.000
            END        END  NEW SURGE  NEW SURGE                                                 BOTTOM    AVERAGE
        STATION  ELEVATION    10-YEAR   100-YEAR                                                  SLOPE    A-ZONES
  OF     88.000    -16.772      0.000      8.998      0.000      0.000      0.000      0.000      0.000      0.000
            END        END  NEW SURGE  NEW SURGE                                                 BOTTOM    AVERAGE
        STATION  ELEVATION    10-YEAR   100-YEAR                                                  SLOPE    A-ZONES
  OF     89.000    -16.772      0.000      8.998      0.000      0.000      0.000      0.000      0.000      0.000
            END        END  NEW SURGE  NEW SURGE                                                 BOTTOM    AVERAGE
        STATION  ELEVATION    10-YEAR   100-YEAR                                                  SLOPE    A-ZONES
  OF     90.000    -16.772      0.000      8.998      0.000      0.000      0.000      0.000      0.000      0.000
            END        END  NEW SURGE  NEW SURGE                                                 BOTTOM    AVERAGE
        STATION  ELEVATION    10-YEAR   100-YEAR                                                  SLOPE    A-ZONES
  OF     91.000    -16.772      0.000      8.998      0.000      0.000      0.000      0.000      0.014      0.000
            END        END  NEW SURGE  NEW SURGE                                                 BOTTOM    AVERAGE
        STATION  ELEVATION    10-YEAR   100-YEAR                                                  SLOPE    A-ZONES
  OF     92.000    -16.745      0.000      8.998      0.000      0.000      0.000      0.000      0.055      0.000
[...]
                                        OF     328.00         7.83         6.96        14.48
                                        OF     329.00         7.84         6.96        14.49
                                        OF     330.00         7.84         6.96        14.49
                                        OF     331.00         7.85         6.96        14.50
                                        OF     332.00         7.82         6.96        14.47
                                        OF     333.00         7.78         6.96        14.45
                                        OF     334.00         7.75         6.96        14.42
                                        OF     335.00         7.70         6.96        14.40
                                        OF     336.00         7.66         6.96        14.37
                                        OF     337.00         7.62         6.96        14.34
                                        OF     338.00         7.57         6.96        14.31
                                        OF     339.00         7.53         6.96        14.28
                                        OF     340.00         7.49         6.96        14.25
                                        OF     341.00         7.45         6.96        14.22
                                        OF     342.00         7.40         6.96        14.19
                                        OF     343.00         7.36         6.96        14.15
                                        OF     344.00         7.31         6.96        14.12
                                        OF     345.00         7.27         6.96        14.10
                                        OF     346.00         7.23         6.96        14.06
                                        OF     347.00         7.18         6.96        14.03
                                        OF     348.00         7.14         6.96        14.00
                                        OF     349.00         7.10         6.96        13.97
                                        OF     350.00         7.05         6.96        13.94
                                        OF     351.00         7.01         6.96        13.91
                                        OF     352.00         6.97         6.96        13.88
                                        OF     353.00         6.92         6.96        13.85
                                        OF     354.00         6.88         6.96        13.82
                                        OF     355.00         6.84         6.96        13.79
                                        OF     356.00         6.79         6.96        13.76
                                        OF     357.00         6.75         6.96        13.73
                                        OF     358.00         6.70         6.96        13.70
                                        OF     359.00         6.66         6.96        13.67
                                        IF     361.50         6.63         6.96        13.65
                                        IF     366.00         6.20         6.96        13.35
                                        IF     372.50         5.72         6.96        13.02
                                        IF     378.00         5.61         6.96        12.94
                                        IF     381.50         5.28         6.96        12.71
                                        IF     385.00         5.28         6.96        12.70
                                        IF     388.50         5.26         6.96        12.70
                                        IF     395.50         4.86         6.96        12.41
                                        IF     404.50         4.12         6.96        11.90
                                        IF     406.80         3.96         6.96        11.77
                                        IF     410.10         3.76         6.96        11.64
                                        IF     413.40         3.70         6.96        11.62
                                        IF     416.70         3.71         6.96        11.64
                                        IF     419.90         3.32         6.96        11.37
                                        IF     423.20         2.91         6.96        11.09
                                        IF     426.50         2.51         6.96        10.85
                                        IF     429.80         2.14         6.96        10.64
                                        IF     433.10         1.71         6.96        10.38
                                        IF     436.40         1.16         6.96        10.11
                                        IF     439.60         0.64         6.96         9.97
                                        IF     442.20         0.01         6.96         9.53
                                        PART3 LOCATION OF AREAS ABOVE 100-YEAR SURGE
                                        NO AREAS ABOVE 100-YEAR SURGE IN THIS TRANSECT
                                                  PART4 LOCATION OF SURGE CHANGES
                                        STATION          10-YEAR SURGE          100-YEAR SURGE
                                          4.00                 1.00                 9.00
                                         53.00                 1.00                 9.00
                                        150.00                 1.00                 9.00
                                        157.00                 1.00                 9.00
                                        185.00                 1.00                 9.00
                                        211.00                 1.00                 9.00
                                        249.00                 1.00                 8.99
                                        290.00                 1.00                 9.00
                                        296.00                 1.00                 9.00
                                        302.00                 1.00                 9.00
                                        309.00                 1.00                 9.00
                                        315.00                 1.00                 9.00
                                        322.00                 1.00                 9.00
                                        328.00                 1.00                 9.00
                                        335.00                 1.00                 9.00
                                        340.00                 1.00                 9.00
                                        345.00                 1.00                 9.01
                                        351.00                 1.00                 9.01
                                        355.00                 1.00                 9.01
                                        361.50                 1.00                 9.01
                                        366.00                 1.00                 9.01
                                        372.50                 1.00                 9.01
                                        378.00                 1.00                 9.01
                                        381.50                 1.00                 9.01
                                        388.50                 1.00                 9.01
                                        406.80                 1.00                 9.00
                                        410.10                 1.00                 9.01
                                        413.40                 1.00                 9.03
                                        416.70                 1.00                 9.04
                                        419.90                 1.00                 9.05
                                        423.20                 1.00                 9.06
                                        426.50                 1.00                 9.09
                                        429.80                 1.00                 9.13
                                        433.10                 1.00                 9.18
                                        436.40                 1.00                 9.30
                                        439.60                 1.00                 9.52
                                                       PART5  LOCATION OF V ZONES
                                             STATION OF GUTTER          LOCATION OF ZONE
                                                      422.45               WINDWARD
                                                   PART6 NUMBERED A ZONES AND V ZONES
                                        STATION OF GUTTER  ELEVATION  ZONE DESIGNATION   FHF
                                               0.00          13.89
                                                                          V22  EL=14     120
                                               3.00          13.89
                                                                          V22  EL=14     120
                                               4.00          13.88
                                                                          V22  EL=14     120
                                              52.00          13.87
                                                                          V22  EL=14     120
                                              53.00          13.87
                                                                          V22  EL=14     120
                                             149.00          14.04
                                                                          V22  EL=14     120
                                             150.00          14.05
                                                                          V22  EL=14     120
                                             156.00          14.07
                                                                          V22  EL=14     120
                                             157.00          14.08
                                                                          V22  EL=14     120
                                             184.00          14.24
                                                                          V22  EL=14     120
                                             185.00          14.25
                                                                          V22  EL=14     120
                                             210.00          14.47
                                                                          V22  EL=14     120
                                             211.00          14.48
                                                                          V22  EL=14     120
                                             213.01          14.50
                                                                          V22  EL=15     120
                                             248.00          14.61
                                                                          V22  EL=15     120
                                             249.00          14.61
                                                                          V22  EL=15     120
                                             289.00          14.62
                                                                          V22  EL=15     120
                                             290.00          14.62
                                                                          V22  EL=15     120
                                             295.00          14.59
                                                                          V22  EL=15     120
                                             296.00          14.59
                                                                          V22  EL=15     120
                                             301.00          14.57
                                                                          V22  EL=15     120
                                             302.00          14.56
                                                                          V22  EL=15     120
                                             308.00          14.53
                                                                          V22  EL=15     120
                                             309.00          14.53
                                                                          V22  EL=15     120
                                             314.00          14.51
                                                                          V22  EL=15     120
                                             315.00          14.50
                                                                          V22  EL=15     120
                                             315.18          14.50
                                                                          V22  EL=14     120
                                             321.00          14.47
                                                                          V22  EL=14     120
                                             322.00          14.46
                                                                          V22  EL=14     120
                                             327.00          14.48
                                                                          V22  EL=14     120
                                             328.00          14.48
                                                                          V22  EL=14     120
                                             334.00          14.42
                                                                          V22  EL=14     120
                                             335.00          14.40
                                                                          V22  EL=14     120
                                             339.00          14.28
                                                                          V22  EL=14     120
                                             340.00          14.25
                                                                          V22  EL=14     120
                                             344.00          14.12
                                                                          V22  EL=14     120
                                             345.00          14.10
                                                                          V22  EL=14     120
                                             350.00          13.94
                                                                          V22  EL=14     120
                                             351.00          13.91
                                                                          V22  EL=14     120
                                             354.00          13.82
                                                                          V22  EL=14     120
                                             355.00          13.79
                                                                          V22  EL=14     120
                                             359.00          13.67
                                                                          V22  EL=14     120
                                             361.50          13.65
                                                                          V22  EL=14     120
                                             363.75          13.50
                                                                          V22  EL=13     120
                                             366.00          13.35
                                                                          V22  EL=13     120
                                             372.50          13.02
                                                                          V22  EL=13     120
                                             378.00          12.94
                                                                          V22  EL=13     120
                                             381.50          12.71
                                                                          V22  EL=13     120
                                             385.00          12.70
                                                                          V22  EL=13     120
                                             388.50          12.70
                                                                          V22  EL=13     120
                                             393.39          12.50
                                                                          V22  EL=12     120
                                             404.50          11.90
                                                                          V22  EL=12     120
                                             406.80          11.77
                                                                          V22  EL=12     120
                                             410.10          11.64
                                                                          V22  EL=12     120
                                             413.40          11.62
                                                                          V22  EL=12     120
                                             416.70          11.64
                                                                          V22  EL=12     120
                                             418.40          11.50
                                                                          V22  EL=11     120
                                             419.90          11.37
                                                                          V22  EL=11     120
                                             422.45          11.15
                                                                          A19  EL=11      95
                                             423.20          11.09
                                                                          A19  EL=11      95
                                             426.50          10.85
                                                                          A19  EL=11      95
                                             429.80          10.64
                                                                          A19  EL=11      95
                                             431.53          10.50
                                                                          A19  EL=10      95
                                             433.10          10.38
                                                                          A19  EL=10      95
                                             436.40          10.11
                                                                          A19  EL=10      95
                                             439.60           9.97
                                                                          A19  EL=10      95
                                             442.20           9.53
                                                  ZONE TERMINATED AT END OF TRANSECT
                                                  PART 7   POSTSCRIPT NOTES
                         PS#  1   START(390709.9581,4811569.5335)                                              
                         PS#  2   END(390662.1306,4811411.1279)                                                
-1.000000e+00
