 WAVE HEIGHT COMPUTATIONS FOR FLOOD INSURANCE STUDIES (WHAFIS VERSION 4.0G, 08_2007)
 Executed on: Mon May 11 15:31:26 2020
 Input file:  C:\FEMA-TransectAnalysis\LOMR-TransectAnalysis-Biddeford\3_whafis\whafis4\YK-121.dat                                            
 Output file: C:\FEMA-TransectAnalysis\LOMR-TransectAnalysis-Biddeford\3_whafis\whafis4\YK-121.out                                            
                                                              header                                                                
                                                     THIS IS A 100-YEAR CASE
                                       THE FOLLOWING NON-DEFAULT WIND SPEEDS ARE BEING USED
                                            WINDIF  56.14  WINDOF  56.14  WINDVH  60.00
                                                             PART1 INPUT
          IE      0.000     -0.789      1.000      1.000      9.116     10.095     14.102     56.140      0.012      0.000
          OF      3.300     -0.749      0.000      9.119      0.000      0.000      0.000      0.000      0.012      0.000
          OF      6.600     -0.708      0.000      9.121      0.000      0.000      0.000      0.000      0.013      0.000
          OF      9.800     -0.667      0.000      9.124      0.000      0.000      0.000      0.000      0.013      0.000
          OF     13.100     -0.621      0.000      9.127      0.000      0.000      0.000      0.000      0.018      0.000
          OF     16.400     -0.549      0.000      9.129      0.000      0.000      0.000      0.000      0.022      0.000
          OF     19.700     -0.477      0.000      9.132      0.000      0.000      0.000      0.000      0.022      0.000
          OF     23.000     -0.404      0.000      9.134      0.000      0.000      0.000      0.000      0.022      0.000
          OF     26.200     -0.332      0.000      9.137      0.000      0.000      0.000      0.000      0.022      0.000
          OF     29.500     -0.260      0.000      9.140      0.000      0.000      0.000      0.000      0.022      0.000
          OF     32.800     -0.188      0.000      9.143      0.000      0.000      0.000      0.000      0.022      0.000
          OF     36.100     -0.115      0.000      9.146      0.000      0.000      0.000      0.000      0.022      0.000
          OF     39.400     -0.043      0.000      9.149      0.000      0.000      0.000      0.000      0.001      0.000
          OF     42.700     -0.110      0.000      9.154      0.000      0.000      0.000      0.000     -0.042      0.000
          OF     45.900     -0.315      0.000      9.161      0.000      0.000      0.000      0.000     -0.037      0.000
          OF     49.200     -0.351      0.000      9.165      0.000      0.000      0.000      0.000     -0.005      0.000
          OF     52.500     -0.351      0.000      9.169      0.000      0.000      0.000      0.000      0.000      0.000
          OF     55.800     -0.351      0.000      9.172      0.000      0.000      0.000      0.000      0.000      0.000
          OF     59.100     -0.351      0.000      9.175      0.000      0.000      0.000      0.000     -0.003      0.000
          OF     62.300     -0.373      0.000      9.178      0.000      0.000      0.000      0.000     -0.007      0.000
          OF     65.600     -0.394      0.000      9.181      0.000      0.000      0.000      0.000     -0.007      0.000
          OF     68.900     -0.416      0.000      9.185      0.000      0.000      0.000      0.000     -0.007      0.000
          OF     72.200     -0.438      0.000      9.188      0.000      0.000      0.000      0.000      0.011      0.000
          OF     75.500     -0.341      0.000      9.190      0.000      0.000      0.000      0.000      0.052      0.000
          OF     78.700     -0.097      0.000      9.190      0.000      0.000      0.000      0.000      0.073      0.000
          IF     82.000      0.137      0.000      9.191      0.000      0.000      0.000      0.000      0.063      0.000
          IF     85.300      0.316      0.000      9.192      0.000      0.000      0.000      0.000      0.054      0.000
          IF     88.600      0.496      0.000      9.194      0.000      0.000      0.000      0.000      0.054      0.000
          IF     91.900      0.675      0.000      9.196      0.000      0.000      0.000      0.000      0.043      0.000
          IF     95.100      0.773      0.000      9.199      0.000      0.000      0.000      0.000      0.018      0.000
          IF     98.400      0.791      0.000      9.204      0.000      0.000      0.000      0.000      0.005      0.000
          IF    101.700      0.809      0.000      9.208      0.000      0.000      0.000      0.000      0.005      0.000
          IF    105.000      0.827      0.000      9.212      0.000      0.000      0.000      0.000      0.005      0.000
          IF    108.300      0.845      0.000      9.216      0.000      0.000      0.000      0.000      0.006      0.000
          IF    111.500      0.867      0.000      9.219      0.000      0.000      0.000      0.000      0.051      0.000
          IF    114.800      1.177      0.000      9.219      0.000      0.000      0.000      0.000      0.094      0.000
          IF    118.100      1.486      0.000      9.220      0.000      0.000      0.000      0.000      0.103      0.000
          IF    121.400      1.859      0.000      9.220      0.000      0.000      0.000      0.000      0.120      0.000
          IF    124.700      2.278      0.000      9.219      0.000      0.000      0.000      0.000      0.127      0.000
          IF    128.000      2.697      0.000      9.220      0.000      0.000      0.000      0.000      0.142      0.000
          IF    131.200      3.203      0.000      9.220      0.000      0.000      0.000      0.000      0.162      0.000
          IF    134.500      3.748      0.000      9.222      0.000      0.000      0.000      0.000      0.158      0.000
          IF    137.800      4.248      0.000      9.229      0.000      0.000      0.000      0.000      0.141      0.000
          IF    141.100      4.679      0.000      9.246      0.000      0.000      0.000      0.000      0.131      0.000
          IF    144.400      5.109      0.000      9.267      0.000      0.000      0.000      0.000      0.136      0.000
          IF    147.600      5.565      0.000      9.289      0.000      0.000      0.000      0.000      0.228      0.000
          IF    150.900      6.591      0.000      9.369      0.000      0.000      0.000      0.000      0.311      0.000
          IF    154.200      7.617      0.000      9.632      0.000      0.000      0.000      0.000      0.311      0.000
          IF    157.500      8.643      0.000      9.919      0.000      0.000      0.000      0.000      0.311      0.000
          IF    160.800      9.669      0.000     10.213      0.000      0.000      0.000      0.000      0.314      0.000
          IF    162.500     10.213      0.000     10.213      0.000      0.000      0.000      0.000      0.320      0.000
          AS    277.800      9.064      0.000      9.064      0.000      0.000      0.000      0.000     -0.025      0.000
          IF    279.500      9.022      0.000      9.064      0.000      0.000      0.000      0.000     -0.042      0.000
          IF    289.000      8.596      0.000      9.064      0.000      0.000      0.000      0.000     -0.021      0.000
          IF    296.500      8.661      0.000      9.064      0.000      0.000      0.000      0.000     -0.014      0.000
          IF    305.000      8.366      0.000      9.065      0.000      0.000      0.000      0.000     -0.035      0.000
          IF    311.500      8.137      0.000      9.065      0.000      0.000      0.000      0.000     -0.013      0.000
          IF    315.000      8.235      0.000      9.065      0.000      0.000      0.000      0.000     -0.015      0.000
          IF    320.500      8.005      0.000      9.065      0.000      0.000      0.000      0.000     -0.030      0.000
          IF    330.500      7.776      0.000      9.065      0.000      0.000      0.000      0.000      0.013      0.000
          IF    336.000      8.212      0.000      9.065      0.000      0.000      0.000      0.000      0.006      0.000
          IF    338.000      7.818      0.000      9.065      0.000      0.000      0.000      0.000     -0.033      0.000
          IF    341.000      8.048      0.000      9.065      0.000      0.000      0.000      0.000      0.002      0.000
          IF    349.000      7.841      0.000      9.065      0.000      0.000      0.000      0.000      0.004      0.000
          IF    357.500      8.113      0.000      9.065      0.000      0.000      0.000      0.000      0.014      0.000
          IF    361.000      8.005      0.000      9.065      0.000      0.000      0.000      0.000     -0.028      0.000
          IF    365.000      7.907      0.000      9.065      0.000      0.000      0.000      0.000      0.018      0.000
          IF    372.000      8.202      0.000      9.065      0.000      0.000      0.000      0.000      0.013      0.000
          IF    378.000      8.071      0.000      9.065      0.000      0.000      0.000      0.000      0.000      0.000
          IF    384.000      8.202      0.000      9.065      0.000      0.000      0.000      0.000      0.014      0.000
          IF    390.000      8.235      0.000      9.065      0.000      0.000      0.000      0.000     -0.007      0.000
          IF    394.000      8.137      0.000      9.065      0.000      0.000      0.000      0.000     -0.020      0.000
          IF    401.500      8.005      0.000      9.065      0.000      0.000      0.000      0.000     -0.019      0.000
          IF    409.500      7.841      0.000      9.065      0.000      0.000      0.000      0.000     -0.019      0.000
          IF    417.000      7.710      0.000      9.065      0.000      0.000      0.000      0.000     -0.038      0.000
          IF    422.000      7.362      0.000      9.065      0.000      0.000      0.000      0.000     -0.044      0.000
          IF    426.000      7.316      0.000      9.065      0.000      0.000      0.000      0.000     -0.026      0.000
          IF    432.500      7.087      0.000      9.065      0.000      0.000      0.000      0.000     -0.009      0.000
          IF    441.000      7.185      0.000      9.065      0.000      0.000      0.000      0.000     -0.003      0.000
          IF    457.000      7.021      0.000      9.065      0.000      0.000      0.000      0.000     -0.013      0.000
          IF    468.000      6.837      0.000      9.064      0.000      0.000      0.000      0.000     -0.011      0.000
          IF    472.500      6.857      0.000      9.064      0.000      0.000      0.000      0.000     -0.005      0.000
          IF    478.000      6.791      0.000      9.064      0.000      0.000      0.000      0.000      0.000      0.000
          IF    483.500      6.857      0.000      9.064      0.000      0.000      0.000      0.000      0.007      0.000
          IF    492.000      6.890      0.000      9.064      0.000      0.000      0.000      0.000      0.005      0.000
          IF    502.000      6.955      0.000      9.063      0.000      0.000      0.000      0.000     -0.033      0.000
          IF    513.000      6.201      0.000      9.063      0.000      0.000      0.000      0.000      0.132      0.000
          IF    518.000      9.063      0.000      9.063      0.000      0.000      0.000      0.000      0.572      0.000
          AS    530.400      9.062      0.000      9.062      0.000      0.000      0.000      0.000     -0.606      0.000
          IF    535.500      5.971      0.000      9.062      0.000      0.000      0.000      0.000     -0.187      0.000
          IF    548.500      5.676      0.000      9.062      0.000      0.000      0.000      0.000      0.026      0.000
          IF    560.000      6.608      0.000      9.061      0.000      0.000      0.000      0.000      0.083      0.000
          IF    574.500      7.841      0.000      9.061      0.000      0.000      0.000      0.000      0.051      0.000
          IF    581.500      7.710      0.000      9.061      0.000      0.000      0.000      0.000     -0.023      0.000
          IF    587.500      7.546      0.000      9.061      0.000      0.000      0.000      0.000     -0.024      0.000
          IF    595.000      7.382      0.000      9.061      0.000      0.000      0.000      0.000     -0.144      0.000
          IF    602.500      5.381      0.000      9.061      0.000      0.000      0.000      0.000     -0.164      0.000
          IF    608.000      5.249      0.000      9.061      0.000      0.000      0.000      0.000     -0.010      0.000
          IF    618.500      5.216      0.000      9.061      0.000      0.000      0.000      0.000     -0.019      0.000
          IF    630.000      4.833      0.000      9.061      0.000      0.000      0.000      0.000     -0.014      0.000
          IF    637.000      4.964      0.000      9.061      0.000      0.000      0.000      0.000      0.000      0.000
          IF    650.500      4.833      0.000      9.061      0.000      0.000      0.000      0.000     -0.004      0.000
          IF    660.500      4.865      0.000      9.062      0.000      0.000      0.000      0.000     -0.015      0.000
          IF    668.000      4.570      0.000      9.062      0.000      0.000      0.000      0.000     -0.006      0.000
          IF    677.000      4.767      0.000      9.062      0.000      0.000      0.000      0.000      0.007      0.000
          IF    688.000      4.701      0.000      9.062      0.000      0.000      0.000      0.000     -0.013      0.000
          IF    697.000      4.505      0.000      9.062      0.000      0.000      0.000      0.000      0.024      0.000
          IF    701.000      5.013      0.000      9.062      0.000      0.000      0.000      0.000      0.040      0.000
          IF    708.000      4.944      0.000      9.062      0.000      0.000      0.000      0.000     -0.041      0.000
          IF    716.000      4.406      0.000      9.063      0.000      0.000      0.000      0.000     -0.028      0.000
          IF    722.500      4.537      0.000      9.063      0.000      0.000      0.000      0.000      0.002      0.000
          IF    731.500      4.439      0.000      9.063      0.000      0.000      0.000      0.000      0.000      0.000
          IF    740.000      4.537      0.000      9.063      0.000      0.000      0.000      0.000      0.002      0.000
          IF    747.500      4.472      0.000      9.063      0.000      0.000      0.000      0.000     -0.003      0.000
          IF    752.000      4.505      0.000      9.063      0.000      0.000      0.000      0.000     -0.017      0.000
          IF    760.000      4.259      0.000      9.063      0.000      0.000      0.000      0.000     -0.066      0.000
          IF    764.500      3.684      0.000      9.063      0.000      0.000      0.000      0.000     -0.020      0.000
          IF    774.000      3.980      0.000      9.063      0.000      0.000      0.000      0.000      0.013      0.000
          IF    785.500      3.947      0.000      9.063      0.000      0.000      0.000      0.000     -0.006      0.000
          IF    797.000      3.848      0.000      9.063      0.000      0.000      0.000      0.000      0.006      0.000
          IF    808.000      4.078      0.000      9.063      0.000      0.000      0.000      0.000      0.000      0.000
          IF    825.500      3.848      0.000      9.063      0.000      0.000      0.000      0.000     -0.036      0.000
          IF    831.000      3.258      0.000      9.063      0.000      0.000      0.000      0.000     -0.025      0.000
          IF    841.000      3.455      0.000      9.063      0.000      0.000      0.000      0.000      0.030      0.000
          IF    851.500      3.865      0.000      9.063      0.000      0.000      0.000      0.000      0.000      0.000
          IF    860.000      3.455      0.000      9.063      0.000      0.000      0.000      0.000      0.001      0.000
          IF    870.500      3.881      0.000      9.063      0.000      0.000      0.000      0.000      0.034      0.000
          IF    880.000      4.144      0.000      9.063      0.000      0.000      0.000      0.000      0.014      0.000
          IF    885.000      4.078      0.000      9.062      0.000      0.000      0.000      0.000     -0.014      0.000
          IF    891.500      3.980      0.000      9.062      0.000      0.000      0.000      0.000     -0.004      0.000
          IF    903.500      4.012      0.000      9.062      0.000      0.000      0.000      0.000     -0.003      0.000
          IF    916.000      3.914      0.000      9.062      0.000      0.000      0.000      0.000      0.007      0.000
          IF    923.000      4.157      0.000      9.062      0.000      0.000      0.000      0.000      0.007      0.000
          IF    930.500      4.012      0.000      9.062      0.000      0.000      0.000      0.000     -0.010      0.000
          IF    940.000      3.980      0.000      9.061      0.000      0.000      0.000      0.000      0.000      0.000
          IF    952.500      4.012      0.000      9.061      0.000      0.000      0.000      0.000      0.008      0.000
          IF    959.500      4.144      0.000      9.061      0.000      0.000      0.000      0.000     -0.002      0.000
          IF    967.000      3.980      0.000      9.061      0.000      0.000      0.000      0.000     -0.032      0.000
          IF    974.000      3.684      0.000      9.061      0.000      0.000      0.000      0.000     -0.002      0.000
          IF    989.500      3.947      0.000      9.061      0.000      0.000      0.000      0.000      0.016      0.000
          IF   1006.500      4.209      0.000      9.061      0.000      0.000      0.000      0.000     -0.015      0.000
          IF   1016.500      3.553      0.000      9.061      0.000      0.000      0.000      0.000     -0.014      0.000
          IF   1025.500      3.947      0.000      9.061      0.000      0.000      0.000      0.000      0.076      0.000
          IF   1034.000      4.879      0.000      9.061      0.000      0.000      0.000      0.000      0.029      0.000
          IF   1040.000      4.373      0.000      9.061      0.000      0.000      0.000      0.000     -0.036      0.000
          IF   1054.500      4.144      0.000      9.061      0.000      0.000      0.000      0.000      0.000      0.000
          IF   1062.500      4.373      0.000      9.061      0.000      0.000      0.000      0.000     -0.002      0.000
          IF   1067.500      4.111      0.000      9.061      0.000      0.000      0.000      0.000      0.049      0.000
          IF   1071.500      4.813      0.000      9.061      0.000      0.000      0.000      0.000     -0.011      0.000
          IF   1079.500      3.980      0.000      9.061      0.000      0.000      0.000      0.000     -0.039      0.000
          IF   1095.500      3.881      0.000      9.061      0.000      0.000      0.000      0.000      0.035      0.000
          IF   1107.000      4.944      0.000      9.061      0.000      0.000      0.000      0.000      0.067      0.000
          IF   1110.000      4.849      0.000      9.061      0.000      0.000      0.000      0.000     -0.142      0.000
          IF   1117.000      3.520      0.000      9.061      0.000      0.000      0.000      0.000     -0.044      0.000
          IF   1129.000      4.012      0.000      9.062      0.000      0.000      0.000      0.000      0.032      0.000
          IF   1141.500      4.308      0.000      9.062      0.000      0.000      0.000      0.000      0.039      0.000
          IF   1148.000      4.747      0.000      9.062      0.000      0.000      0.000      0.000     -0.009      0.000
          IF   1149.000      4.242      0.000      9.062      0.000      0.000      0.000      0.000     -0.030      0.000
          IF   1156.000      4.505      0.000      9.063      0.000      0.000      0.000      0.000      0.036      0.000
          IF   1164.000      4.787      0.000      9.063      0.000      0.000      0.000      0.000     -0.017      0.000
          IF   1171.500      4.242      0.000      9.063      0.000      0.000      0.000      0.000     -0.016      0.000
          IF   1179.500      4.541      0.000      9.064      0.000      0.000      0.000      0.000      0.047      0.000
          IF   1185.500      4.902      0.000      9.064      0.000      0.000      0.000      0.000     -0.002      0.000
          IF   1192.500      4.508      0.000      9.064      0.000      0.000      0.000      0.000      0.004      0.000
          IF   1197.500      4.948      0.000      9.064      0.000      0.000      0.000      0.000      0.063      0.000
          IF   1200.000      4.980      0.000      9.064      0.000      0.000      0.000      0.000     -0.022      0.000
          IF   1205.500      4.770      0.000      9.064      0.000      0.000      0.000      0.000     -0.032      0.000
          IF   1215.000      4.508      0.000      9.065      0.000      0.000      0.000      0.000      0.014      0.000
          IF   1221.000      4.980      0.000      9.065      0.000      0.000      0.000      0.000     -0.004      0.000
          IF   1224.000      4.475      0.000      9.065      0.000      0.000      0.000      0.000     -0.039      0.000
          IF   1227.000      4.747      0.000      9.065      0.000      0.000      0.000      0.000      0.015      0.000
          IF   1230.500      4.574      0.000      9.065      0.000      0.000      0.000      0.000     -0.030      0.000
          IF   1235.000      4.508      0.000      9.066      0.000      0.000      0.000      0.000      0.056      0.000
          IF   1242.000      5.216      0.000      9.066      0.000      0.000      0.000      0.000      0.035      0.000
          IF   1251.500      5.085      0.000      9.066      0.000      0.000      0.000      0.000     -0.003      0.000
          IF   1263.500      5.151      0.000      9.067      0.000      0.000      0.000      0.000      0.000      0.000
          IF   1274.000      5.085      0.000      9.067      0.000      0.000      0.000      0.000      0.000      0.000
          IF   1283.000      5.151      0.000      9.067      0.000      0.000      0.000      0.000      0.009      0.000
          IF   1291.500      5.249      0.000      9.068      0.000      0.000      0.000      0.000      0.021      0.000
          IF   1294.000      5.381      0.000      9.068      0.000      0.000      0.000      0.000      0.045      0.000
          IF   1298.000      5.545      0.000      9.068      0.000      0.000      0.000      0.000      0.049      0.000
          IF   1302.000      5.774      0.000      9.068      0.000      0.000      0.000      0.000      0.025      0.000
          IF   1306.000      5.741      0.000      9.068      0.000      0.000      0.000      0.000     -0.027      0.000
          IF   1314.000      5.446      0.000      9.068      0.000      0.000      0.000      0.000     -0.012      0.000
          IF   1323.000      5.545      0.000      9.069      0.000      0.000      0.000      0.000      0.009      0.000
          IF   1332.000      5.610      0.000      9.069      0.000      0.000      0.000      0.000      0.011      0.000
          IF   1341.000      5.741      0.000      9.069      0.000      0.000      0.000      0.000      0.014      0.000
          IF   1348.000      5.840      0.000      9.069      0.000      0.000      0.000      0.000      0.039      0.000
          IF   1354.500      6.266      0.000      9.070      0.000      0.000      0.000      0.000      0.063      0.000
          IF   1361.000      6.660      0.000      9.070      0.000      0.000      0.000      0.000      0.018      0.000
          IF   1367.000      6.496      0.000      9.070      0.000      0.000      0.000      0.000     -0.063      0.000
          IF   1374.000      5.840      0.000      9.070      0.000      0.000      0.000      0.000     -0.079      0.000
          IF   1379.000      5.545      0.000      9.070      0.000      0.000      0.000      0.000     -0.035      0.000
          IF   1387.000      5.381      0.000      9.070      0.000      0.000      0.000      0.000     -0.014      0.000
          IF   1395.500      5.315      0.000      9.070      0.000      0.000      0.000      0.000     -0.010      0.000
          IF   1400.000      5.249      0.000      9.070      0.000      0.000      0.000      0.000     -0.011      0.000
          IF   1411.000      5.151      0.000      9.070      0.000      0.000      0.000      0.000     -0.027      0.000
          IF   1420.000      4.701      0.000      9.070      0.000      0.000      0.000      0.000     -0.071      0.000
          IF   1426.500      4.045      0.000      9.070      0.000      0.000      0.000      0.000     -0.030      0.000
          IF   1433.000      4.308      0.000      9.070      0.000      0.000      0.000      0.000     -0.038      0.000
          IF   1441.000      3.487      0.000      9.070      0.000      0.000      0.000      0.000     -0.058      0.000
          IF   1449.500      3.356      0.000      9.070      0.000      0.000      0.000      0.000     -0.043      0.000
          IF   1462.500      2.569      0.000      9.070      0.000      0.000      0.000      0.000     -0.036      0.000
          IF   1470.500      2.602      0.000      9.069      0.000      0.000      0.000      0.000      0.014      0.000
          IF   1484.000      2.864      0.000      9.069      0.000      0.000      0.000      0.000     -0.017      0.000
          IF   1492.000      2.241      0.000      9.069      0.000      0.000      0.000      0.000     -0.044      0.000
          IF   1506.500      1.880      0.000      9.069      0.000      0.000      0.000      0.000     -0.013      0.000
          IF   1513.000      1.978      0.000      9.069      0.000      0.000      0.000      0.000     -0.020      0.000
          OF   1609.000     -0.121      0.000      9.067      0.000      0.000      0.000      0.000     -0.022      0.000
          OF   1616.000     -0.253      0.000      9.067      0.000      0.000      0.000      0.000     -0.012      0.000
          OF   1741.000     -1.701      0.000      9.066      0.000      0.000      0.000      0.000     -0.007      0.000
          OF   1823.000     -1.714      0.000      9.065      0.000      0.000      0.000      0.000      0.000      0.000
          OF   1825.000     -1.714      0.000      9.065      0.000      0.000      0.000      0.000     -0.068      0.000
          OF   1938.000     -9.472      0.000      9.064      0.000      0.000      0.000      0.000     -0.067      0.000
          OF   1986.000    -12.431      0.000      9.063      0.000      0.000      0.000      0.000     -0.062      0.000
          OF   1987.000    -12.492      0.000      9.063      0.000      0.000      0.000      0.000     -0.061      0.000
          OF   1988.000    -12.553      0.000      9.063      0.000      0.000      0.000      0.000     -0.061      0.000
          OF   1989.000    -12.614      0.000      9.063      0.000      0.000      0.000      0.000     -0.061      0.000
          OF   1990.000    -12.675      0.000      9.063      0.000      0.000      0.000      0.000     -0.061      0.000
          OF   1991.000    -12.736      0.000      9.063      0.000      0.000      0.000      0.000     -0.061      0.000
          OF   1992.000    -12.797      0.000      9.063      0.000      0.000      0.000      0.000     -0.061      0.000
          OF   1993.000    -12.858      0.000      9.063      0.000      0.000      0.000      0.000     -0.061      0.000
          OF   1994.000    -12.919      0.000      9.063      0.000      0.000      0.000      0.000     -0.061      0.000
          OF   1995.000    -12.980      0.000      9.063      0.000      0.000      0.000      0.000     -0.061      0.000
          OF   1996.000    -13.041      0.000      9.063      0.000      0.000      0.000      0.000     -0.061      0.000
          OF   1997.000    -13.102      0.000      9.063      0.000      0.000      0.000      0.000     -0.060      0.000
          OF   1998.000    -13.162      0.000      9.063      0.000      0.000      0.000      0.000     -0.060      0.000
          OF   1999.000    -13.223      0.000      9.063      0.000      0.000      0.000      0.000     -0.061      0.000
          OF   2000.000    -13.284      0.000      9.063      0.000      0.000      0.000      0.000     -0.061      0.000
          OF   2001.000    -13.345      0.000      9.063      0.000      0.000      0.000      0.000     -0.061      0.000
          OF   2002.000    -13.406      0.000      9.063      0.000      0.000      0.000      0.000     -0.061      0.000
          OF   2003.000    -13.467      0.000      9.063      0.000      0.000      0.000      0.000     -0.061      0.000
          OF   2004.000    -13.528      0.000      9.063      0.000      0.000      0.000      0.000     -0.061      0.000
          OF   2005.000    -13.589      0.000      9.063      0.000      0.000      0.000      0.000     -0.061      0.000
          OF   2006.000    -13.650      0.000      9.063      0.000      0.000      0.000      0.000     -0.061      0.000
          OF   2007.000    -13.711      0.000      9.063      0.000      0.000      0.000      0.000     -0.061      0.000
          OF   2008.000    -13.772      0.000      9.063      0.000      0.000      0.000      0.000     -0.060      0.000
          OF   2009.000    -13.832      0.000      9.063      0.000      0.000      0.000      0.000     -0.060      0.000
          OF   2010.000    -13.893      0.000      9.063      0.000      0.000      0.000      0.000     -0.061      0.000
          OF   2011.000    -13.954      0.000      9.063      0.000      0.000      0.000      0.000     -0.061      0.000
          OF   2012.000    -14.015      0.000      9.063      0.000      0.000      0.000      0.000     -0.061      0.000
          OF   2013.000    -14.076      0.000      9.063      0.000      0.000      0.000      0.000     -0.061      0.000
          OF   2014.000    -14.137      0.000      9.063      0.000      0.000      0.000      0.000     -0.061      0.000
          OF   2015.000    -14.198      0.000      9.063      0.000      0.000      0.000      0.000     -0.061      0.000
          OF   2016.000    -14.259      0.000      9.063      0.000      0.000      0.000      0.000     -0.061      0.000
          OF   2017.000    -14.320      0.000      9.063      0.000      0.000      0.000      0.000     -0.061      0.000
          OF   2018.000    -14.381      0.000      9.063      0.000      0.000      0.000      0.000     -0.061      0.000
          OF   2019.000    -14.442      0.000      9.063      0.000      0.000      0.000      0.000     -0.060      0.000
          OF   2020.000    -14.502      0.000      9.063      0.000      0.000      0.000      0.000     -0.060      0.000
          OF   2021.000    -14.563      0.000      9.063      0.000      0.000      0.000      0.000     -0.061      0.000
          OF   2022.000    -14.624      0.000      9.063      0.000      0.000      0.000      0.000     -0.061      0.000
          OF   2023.000    -14.685      0.000      9.063      0.000      0.000      0.000      0.000     -0.061      0.000
          OF   2024.000    -14.746      0.000      9.063      0.000      0.000      0.000      0.000     -0.061      0.000
          OF   2025.000    -14.807      0.000      9.063      0.000      0.000      0.000      0.000     -0.061      0.000
          OF   2026.000    -14.868      0.000      9.063      0.000      0.000      0.000      0.000     -0.061      0.000
          OF   2027.000    -14.929      0.000      9.063      0.000      0.000      0.000      0.000     -0.061      0.000
          OF   2028.000    -14.990      0.000      9.063      0.000      0.000      0.000      0.000     -0.061      0.000
          OF   2029.000    -15.051      0.000      9.063      0.000      0.000      0.000      0.000     -0.061      0.000
          OF   2030.000    -15.112      0.000      9.063      0.000      0.000      0.000      0.000     -0.061      0.000
          OF   2031.000    -15.173      0.000      9.063      0.000      0.000      0.000      0.000     -0.061      0.000
          OF   2032.000    -15.234      0.000      9.063      0.000      0.000      0.000      0.000     -0.060      0.000
          OF   2033.000    -15.294      0.000      9.063      0.000      0.000      0.000      0.000     -0.060      0.000
          OF   2034.000    -15.355      0.000      9.063      0.000      0.000      0.000      0.000     -0.061      0.000
          OF   2035.000    -15.416      0.000      9.063      0.000      0.000      0.000      0.000     -0.061      0.000
          OF   2036.000    -15.477      0.000      9.063      0.000      0.000      0.000      0.000     -0.061      0.000
          OF   2037.000    -15.538      0.000      9.063      0.000      0.000      0.000      0.000     -0.061      0.000
          OF   2038.000    -15.599      0.000      9.063      0.000      0.000      0.000      0.000     -0.061      0.000
          OF   2039.000    -15.660      0.000      9.063      0.000      0.000      0.000      0.000     -0.061      0.000
          OF   2040.000    -15.721      0.000      9.063      0.000      0.000      0.000      0.000     -0.061      0.000
          OF   2041.000    -15.782      0.000      9.063      0.000      0.000      0.000      0.000     -0.061      0.000
          OF   2042.000    -15.843      0.000      9.063      0.000      0.000      0.000      0.000     -0.057      0.000
          OF   2043.000    -15.896      0.000      9.063      0.000      0.000      0.000      0.000     -0.032      0.000
          OF   2044.000    -15.908      0.000      9.063      0.000      0.000      0.000      0.000     -0.013      0.000
          OF   2045.000    -15.921      0.000      9.063      0.000      0.000      0.000      0.000     -0.013      0.000
          OF   2046.000    -15.934      0.000      9.063      0.000      0.000      0.000      0.000     -0.013      0.000
          OF   2047.000    -15.946      0.000      9.063      0.000      0.000      0.000      0.000     -0.013      0.000
          OF   2048.000    -15.959      0.000      9.063      0.000      0.000      0.000      0.000     -0.013      0.000
          OF   2049.000    -15.971      0.000      9.063      0.000      0.000      0.000      0.000     -0.013      0.000
          OF   2050.000    -15.984      0.000      9.063      0.000      0.000      0.000      0.000     -0.013      0.000
          OF   2051.000    -15.996      0.000      9.063      0.000      0.000      0.000      0.000     -0.013      0.000
          OF   2052.000    -16.009      0.000      9.063      0.000      0.000      0.000      0.000     -0.019      0.000
          OF   2053.000    -16.034      0.000      9.063      0.000      0.000      0.000      0.000     -0.024      0.000
          OF   2054.000    -16.058      0.000      9.063      0.000      0.000      0.000      0.000     -0.024      0.000
          OF   2055.000    -16.083      0.000      9.063      0.000      0.000      0.000      0.000     -0.025      0.000
          OF   2056.000    -16.108      0.000      9.062      0.000      0.000      0.000      0.000     -0.024      0.000
          OF   2057.000    -16.132      0.000      9.062      0.000      0.000      0.000      0.000     -0.024      0.000
          OF   2058.000    -16.157      0.000      9.062      0.000      0.000      0.000      0.000     -0.025      0.000
          OF   2059.000    -16.182      0.000      9.062      0.000      0.000      0.000      0.000     -0.024      0.000
          OF   2060.000    -16.206      0.000      9.062      0.000      0.000      0.000      0.000     -0.024      0.000
          OF   2061.000    -16.231      0.000      9.062      0.000      0.000      0.000      0.000     -0.024      0.000
          OF   2062.000    -16.255      0.000      9.062      0.000      0.000      0.000      0.000     -0.024      0.000
          OF   2063.000    -16.280      0.000      9.062      0.000      0.000      0.000      0.000     -0.025      0.000
          OF   2064.000    -16.305      0.000      9.062      0.000      0.000      0.000      0.000     -0.024      0.000
          OF   2065.000    -16.329      0.000      9.062      0.000      0.000      0.000      0.000     -0.024      0.000
          OF   2066.000    -16.354      0.000      9.062      0.000      0.000      0.000      0.000     -0.025      0.000
          OF   2067.000    -16.379      0.000      9.062      0.000      0.000      0.000      0.000     -0.024      0.000
          OF   2068.000    -16.403      0.000      9.062      0.000      0.000      0.000      0.000     -0.024      0.000
          OF   2069.000    -16.428      0.000      9.062      0.000      0.000      0.000      0.000     -0.025      0.000
          OF   2070.000    -16.453      0.000      9.062      0.000      0.000      0.000      0.000     -0.024      0.000
          OF   2071.000    -16.477      0.000      9.062      0.000      0.000      0.000      0.000     -0.024      0.000
          OF   2072.000    -16.502      0.000      9.062      0.000      0.000      0.000      0.000     -0.025      0.000
          OF   2073.000    -16.527      0.000      9.062      0.000      0.000      0.000      0.000     -0.024      0.000
          OF   2074.000    -16.551      0.000      9.062      0.000      0.000      0.000      0.000     -0.024      0.000
          OF   2075.000    -16.576      0.000      9.062      0.000      0.000      0.000      0.000     -0.025      0.000
          OF   2076.000    -16.601      0.000      9.062      0.000      0.000      0.000      0.000     -0.024      0.000
          OF   2077.000    -16.625      0.000      9.062      0.000      0.000      0.000      0.000     -0.024      0.000
          OF   2078.000    -16.650      0.000      9.062      0.000      0.000      0.000      0.000     -0.025      0.000
          OF   2079.000    -16.675      0.000      9.062      0.000      0.000      0.000      0.000     -0.024      0.000
          OF   2080.000    -16.699      0.000      9.062      0.000      0.000      0.000      0.000     -0.024      0.000
          OF   2081.000    -16.724      0.000      9.062      0.000      0.000      0.000      0.000     -0.024      0.000
          OF   2082.000    -16.748      0.000      9.062      0.000      0.000      0.000      0.000     -0.024      0.000
          OF   2083.000    -16.773      0.000      9.062      0.000      0.000      0.000      0.000     -0.025      0.000
          OF   2084.000    -16.798      0.000      9.062      0.000      0.000      0.000      0.000     -0.025      0.000
          OF   2085.000    -16.823      0.000      9.062      0.000      0.000      0.000      0.000     -0.024      0.000
          OF   2086.000    -16.847      0.000      9.062      0.000      0.000      0.000      0.000     -0.024      0.000
          OF   2087.000    -16.872      0.000      9.062      0.000      0.000      0.000      0.000     -0.024      0.000
          OF   2088.000    -16.896      0.000      9.062      0.000      0.000      0.000      0.000     -0.024      0.000
          OF   2089.000    -16.921      0.000      9.062      0.000      0.000      0.000      0.000     -0.025      0.000
          OF   2090.000    -16.946      0.000      9.062      0.000      0.000      0.000      0.000     -0.024      0.000
          OF   2091.000    -16.970      0.000      9.062      0.000      0.000      0.000      0.000     -0.024      0.000
          OF   2092.000    -16.995      0.000      9.062      0.000      0.000      0.000      0.000     -0.025      0.000
          OF   2093.000    -17.020      0.000      9.062      0.000      0.000      0.000      0.000     -0.024      0.000
          OF   2094.000    -17.044      0.000      9.062      0.000      0.000      0.000      0.000     -0.024      0.000
          OF   2095.000    -17.069      0.000      9.062      0.000      0.000      0.000      0.000     -0.025      0.000
          OF   2096.000    -17.094      0.000      9.062      0.000      0.000      0.000      0.000     -0.024      0.000
          OF   2097.000    -17.118      0.000      9.062      0.000      0.000      0.000      0.000     -0.024      0.000
          OF   2098.000    -17.143      0.000      9.062      0.000      0.000      0.000      0.000     -0.025      0.000
          OF   2099.000    -17.168      0.000      9.062      0.000      0.000      0.000      0.000     -0.024      0.000
          OF   2100.000    -17.192      0.000      9.062      0.000      0.000      0.000      0.000     -0.024      0.000
          OF   2101.000    -17.217      0.000      9.062      0.000      0.000      0.000      0.000     -0.025      0.000
          OF   2102.000    -17.242      0.000      9.062      0.000      0.000      0.000      0.000     -0.023      0.000
          OF   2103.000    -17.263      0.000      9.062      0.000      0.000      0.000      0.000     -0.020      0.000
          OF   2104.000    -17.282      0.000      9.062      0.000      0.000      0.000      0.000     -0.019      0.000
          OF   2105.000    -17.300      0.000      9.062      0.000      0.000      0.000      0.000     -0.019      0.000
          OF   2106.000    -17.319      0.000      9.062      0.000      0.000      0.000      0.000     -0.019      0.000
          OF   2107.000    -17.337      0.000      9.062      0.000      0.000      0.000      0.000     -0.019      0.000
          OF   2108.000    -17.356      0.000      9.062      0.000      0.000      0.000      0.000     -0.019      0.000
          OF   2109.000    -17.374      0.000      9.062      0.000      0.000      0.000      0.000     -0.019      0.000
          OF   2110.000    -17.393      0.000      9.062      0.000      0.000      0.000      0.000     -0.019      0.000
          OF   2111.000    -17.411      0.000      9.062      0.000      0.000      0.000      0.000     -0.019      0.000
          OF   2112.000    -17.430      0.000      9.062      0.000      0.000      0.000      0.000     -0.019      0.000
          OF   2113.000    -17.448      0.000      9.062      0.000      0.000      0.000      0.000     -0.019      0.000
          OF   2114.000    -17.467      0.000      9.062      0.000      0.000      0.000      0.000     -0.019      0.000
          OF   2115.000    -17.485      0.000      9.062      0.000      0.000      0.000      0.000     -0.019      0.000
          OF   2116.000    -17.504      0.000      9.062      0.000      0.000      0.000      0.000     -0.019      0.000
          OF   2117.000    -17.522      0.000      9.062      0.000      0.000      0.000      0.000     -0.019      0.000
          OF   2118.000    -17.541      0.000      9.062      0.000      0.000      0.000      0.000     -0.019      0.000
          OF   2119.000    -17.559      0.000      9.062      0.000      0.000      0.000      0.000     -0.019      0.000
          OF   2120.000    -17.578      0.000      9.062      0.000      0.000      0.000      0.000     -0.019      0.000
          OF   2121.000    -17.596      0.000      9.062      0.000      0.000      0.000      0.000     -0.019      0.000
          OF   2122.000    -17.615      0.000      9.062      0.000      0.000      0.000      0.000     -0.019      0.000
          OF   2123.000    -17.633      0.000      9.062      0.000      0.000      0.000      0.000     -0.019      0.000
          OF   2124.000    -17.652      0.000      9.062      0.000      0.000      0.000      0.000     -0.019      0.000
          OF   2125.000    -17.670      0.000      9.062      0.000      0.000      0.000      0.000     -0.019      0.000
          OF   2126.000    -17.689      0.000      9.062      0.000      0.000      0.000      0.000     -0.019      0.000
          OF   2127.000    -17.707      0.000      9.062      0.000      0.000      0.000      0.000     -0.019      0.000
          OF   2128.000    -17.726      0.000      9.062      0.000      0.000      0.000      0.000     -0.019      0.000
          OF   2129.000    -17.744      0.000      9.062      0.000      0.000      0.000      0.000     -0.019      0.000
          OF   2130.000    -17.763      0.000      9.062      0.000      0.000      0.000      0.000     -0.019      0.000
          OF   2131.000    -17.781      0.000      9.062      0.000      0.000      0.000      0.000     -0.019      0.000
          OF   2132.000    -17.800      0.000      9.062      0.000      0.000      0.000      0.000     -0.019      0.000
          OF   2133.000    -17.818      0.000      9.062      0.000      0.000      0.000      0.000     -0.019      0.000
          OF   2134.000    -17.837      0.000      9.062      0.000      0.000      0.000      0.000     -0.019      0.000
          OF   2135.000    -17.855      0.000      9.062      0.000      0.000      0.000      0.000     -0.019      0.000
          OF   2136.000    -17.874      0.000      9.062      0.000      0.000      0.000      0.000     -0.019      0.000
          OF   2137.000    -17.892      0.000      9.062      0.000      0.000      0.000      0.000     -0.019      0.000
          OF   2138.000    -17.911      0.000      9.061      0.000      0.000      0.000      0.000     -0.019      0.000
          OF   2139.000    -17.929      0.000      9.061      0.000      0.000      0.000      0.000     -0.019      0.000
          OF   2140.000    -17.948      0.000      9.061      0.000      0.000      0.000      0.000     -0.019      0.000
          OF   2141.000    -17.966      0.000      9.061      0.000      0.000      0.000      0.000     -0.019      0.000
          OF   2142.000    -17.985      0.000      9.061      0.000      0.000      0.000      0.000     -0.019      0.000
          OF   2143.000    -18.003      0.000      9.061      0.000      0.000      0.000      0.000     -0.019      0.000
          OF   2144.000    -18.022      0.000      9.061      0.000      0.000      0.000      0.000     -0.019      0.000
          OF   2145.000    -18.040      0.000      9.061      0.000      0.000      0.000      0.000     -0.019      0.000
          OF   2146.000    -18.059      0.000      9.061      0.000      0.000      0.000      0.000     -0.019      0.000
          OF   2147.000    -18.077      0.000      9.061      0.000      0.000      0.000      0.000     -0.019      0.000
          OF   2148.000    -18.096      0.000      9.061      0.000      0.000      0.000      0.000     -0.019      0.000
          OF   2149.000    -18.114      0.000      9.061      0.000      0.000      0.000      0.000     -0.019      0.000
          OF   2150.000    -18.133      0.000      9.061      0.000      0.000      0.000      0.000     -0.019      0.000
          OF   2151.000    -18.151      0.000      9.061      0.000      0.000      0.000      0.000     -0.019      0.000
          OF   2152.000    -18.170      0.000      9.061      0.000      0.000      0.000      0.000     -0.019      0.000
          OF   2153.000    -18.188      0.000      9.061      0.000      0.000      0.000      0.000     -0.019      0.000
          OF   2154.000    -18.207      0.000      9.061      0.000      0.000      0.000      0.000     -0.019      0.000
          OF   2155.000    -18.225      0.000      9.061      0.000      0.000      0.000      0.000     -0.019      0.000
          OF   2156.000    -18.244      0.000      9.061      0.000      0.000      0.000      0.000     -0.019      0.000
          OF   2157.000    -18.262      0.000      9.061      0.000      0.000      0.000      0.000     -0.019      0.000
          OF   2158.000    -18.281      0.000      9.061      0.000      0.000      0.000      0.000     -0.019      0.000
          OF   2159.000    -18.300      0.000      9.061      0.000      0.000      0.000      0.000     -0.019      0.000
          OF   2160.000    -18.319      0.000      9.061      0.000      0.000      0.000      0.000     -0.019      0.000
          OF   2161.000    -18.338      0.000      9.061      0.000      0.000      0.000      0.000     -0.019      0.000
          OF   2162.000    -18.357      0.000      9.061      0.000      0.000      0.000      0.000     -0.019      0.000
          OF   2163.000    -18.375      0.000      9.061      0.000      0.000      0.000      0.000     -0.019      0.000
          OF   2164.000    -18.394      0.000      9.061      0.000      0.000      0.000      0.000     -0.019      0.000
          OF   2165.000    -18.413      0.000      9.061      0.000      0.000      0.000      0.000     -0.019      0.000
          OF   2166.000    -18.432      0.000      9.061      0.000      0.000      0.000      0.000     -0.019      0.000
          OF   2167.000    -18.451      0.000      9.061      0.000      0.000      0.000      0.000     -0.019      0.000
          OF   2168.000    -18.470      0.000      9.061      0.000      0.000      0.000      0.000     -0.027      0.000
          OF   2169.000    -18.506      0.000      9.061      0.000      0.000      0.000      0.000     -0.046      0.000
          OF   2170.000    -18.562      0.000      9.061      0.000      0.000      0.000      0.000     -0.056      0.000
          OF   2171.000    -18.619      0.000      9.061      0.000      0.000      0.000      0.000     -0.056      0.000
          OF   2172.000    -18.675      0.000      9.061      0.000      0.000      0.000      0.000     -0.056      0.000
          OF   2173.000    -18.731      0.000      9.061      0.000      0.000      0.000      0.000     -0.056      0.000
          OF   2174.000    -18.787      0.000      9.061      0.000      0.000      0.000      0.000     -0.056      0.000
          OF   2175.000    -18.843      0.000      9.061      0.000      0.000      0.000      0.000     -0.056      0.000
          OF   2176.000    -18.900      0.000      9.061      0.000      0.000      0.000      0.000     -0.056      0.000
          OF   2177.000    -18.956      0.000      9.061      0.000      0.000      0.000      0.000     -0.056      0.000
          OF   2178.000    -19.012      0.000      9.061      0.000      0.000      0.000      0.000     -0.056      0.000
          OF   2179.000    -19.068      0.000      9.061      0.000      0.000      0.000      0.000     -0.056      0.000
          OF   2180.000    -19.125      0.000      9.061      0.000      0.000      0.000      0.000     -0.056      0.000
          OF   2181.000    -19.181      0.000      9.061      0.000      0.000      0.000      0.000     -0.056      0.000
          OF   2182.000    -19.237      0.000      9.061      0.000      0.000      0.000      0.000     -0.056      0.000
          OF   2183.000    -19.293      0.000      9.061      0.000      0.000      0.000      0.000     -0.056      0.000
          OF   2184.000    -19.349      0.000      9.061      0.000      0.000      0.000      0.000     -0.056      0.000
          OF   2185.000    -19.406      0.000      9.061      0.000      0.000      0.000      0.000     -0.056      0.000
          OF   2186.000    -19.462      0.000      9.061      0.000      0.000      0.000      0.000     -0.056      0.000
          OF   2187.000    -19.518      0.000      9.061      0.000      0.000      0.000      0.000     -0.056      0.000
          OF   2188.000    -19.574      0.000      9.061      0.000      0.000      0.000      0.000     -0.056      0.000
          OF   2189.000    -19.630      0.000      9.061      0.000      0.000      0.000      0.000     -0.056      0.000
          OF   2190.000    -19.687      0.000      9.061      0.000      0.000      0.000      0.000     -0.056      0.000
          OF   2191.000    -19.743      0.000      9.061      0.000      0.000      0.000      0.000     -0.056      0.000
          OF   2192.000    -19.799      0.000      9.061      0.000      0.000      0.000      0.000     -0.056      0.000
          OF   2193.000    -19.855      0.000      9.061      0.000      0.000      0.000      0.000     -0.056      0.000
          OF   2194.000    -19.911      0.000      9.061      0.000      0.000      0.000      0.000     -0.056      0.000
          OF   2195.000    -19.968      0.000      9.061      0.000      0.000      0.000      0.000     -0.056      0.000
          OF   2196.000    -20.024      0.000      9.061      0.000      0.000      0.000      0.000     -0.056      0.000
          OF   2197.000    -20.080      0.000      9.061      0.000      0.000      0.000      0.000     -0.056      0.000
          OF   2198.000    -20.136      0.000      9.061      0.000      0.000      0.000      0.000     -0.056      0.000
          OF   2199.000    -20.192      0.000      9.061      0.000      0.000      0.000      0.000     -0.056      0.000
          OF   2200.000    -20.249      0.000      9.061      0.000      0.000      0.000      0.000     -0.056      0.000
          OF   2201.000    -20.305      0.000      9.061      0.000      0.000      0.000      0.000     -0.056      0.000
          OF   2202.000    -20.361      0.000      9.061      0.000      0.000      0.000      0.000     -0.056      0.000
          OF   2203.000    -20.417      0.000      9.061      0.000      0.000      0.000      0.000     -0.056      0.000
          OF   2204.000    -20.473      0.000      9.061      0.000      0.000      0.000      0.000     -0.056      0.000
          OF   2205.000    -20.530      0.000      9.061      0.000      0.000      0.000      0.000     -0.056      0.000
          OF   2206.000    -20.586      0.000      9.061      0.000      0.000      0.000      0.000     -0.056      0.000
          OF   2207.000    -20.642      0.000      9.061      0.000      0.000      0.000      0.000     -0.056      0.000
          OF   2208.000    -20.698      0.000      9.061      0.000      0.000      0.000      0.000     -0.056      0.000
          OF   2209.000    -20.754      0.000      9.061      0.000      0.000      0.000      0.000     -0.056      0.000
          OF   2210.000    -20.811      0.000      9.061      0.000      0.000      0.000      0.000     -0.056      0.000
          OF   2211.000    -20.867      0.000      9.061      0.000      0.000      0.000      0.000     -0.056      0.000
          OF   2212.000    -20.923      0.000      9.061      0.000      0.000      0.000      0.000     -0.056      0.000
          OF   2213.000    -20.979      0.000      9.061      0.000      0.000      0.000      0.000     -0.056      0.000
          OF   2214.000    -21.035      0.000      9.061      0.000      0.000      0.000      0.000     -0.056      0.000
          OF   2215.000    -21.092      0.000      9.061      0.000      0.000      0.000      0.000     -0.056      0.000
          OF   2216.000    -21.148      0.000      9.061      0.000      0.000      0.000      0.000     -0.056      0.000
          OF   2217.000    -21.204      0.000      9.061      0.000      0.000      0.000      0.000     -0.056      0.000
          OF   2218.000    -21.260      0.000      9.061      0.000      0.000      0.000      0.000     -0.056      0.000
          OF   2219.000    -21.316      0.000      9.061      0.000      0.000      0.000      0.000     -0.056      0.000
          OF   2220.000    -21.373      0.000      9.061      0.000      0.000      0.000      0.000     -0.056      0.000
          OF   2221.000    -21.429      0.000      9.061      0.000      0.000      0.000      0.000     -0.056      0.000
          OF   2222.000    -21.485      0.000      9.061      0.000      0.000      0.000      0.000     -0.056      0.000
          OF   2223.000    -21.541      0.000      9.061      0.000      0.000      0.000      0.000     -0.056      0.000
          OF   2224.000    -21.597      0.000      9.061      0.000      0.000      0.000      0.000     -0.056      0.000
          OF   2225.000    -21.654      0.000      9.061      0.000      0.000      0.000      0.000     -0.056      0.000
          OF   2226.000    -21.710      0.000      9.061      0.000      0.000      0.000      0.000     -0.056      0.000
          OF   2227.000    -21.766      0.000      9.061      0.000      0.000      0.000      0.000     -0.056      0.000
          OF   2228.000    -21.822      0.000      9.061      0.000      0.000      0.000      0.000     -0.056      0.000
          OF   2229.000    -21.878      0.000      9.061      0.000      0.000      0.000      0.000     -0.056      0.000
          OF   2230.000    -21.935      0.000      9.061      0.000      0.000      0.000      0.000     -0.056      0.000
          OF   2231.000    -21.991      0.000      9.061      0.000      0.000      0.000      0.000     -0.056      0.000
          OF   2232.000    -22.047      0.000      9.061      0.000      0.000      0.000      0.000     -0.056      0.000
          OF   2233.000    -22.103      0.000      9.061      0.000      0.000      0.000      0.000     -0.056      0.000
          OF   2234.000    -22.159      0.000      9.061      0.000      0.000      0.000      0.000     -0.056      0.000
          OF   2235.000    -22.216      0.000      9.061      0.000      0.000      0.000      0.000      0.089      0.000
          OF   2236.000    -21.982      0.000      9.061      0.000      0.000      0.000      0.000      0.286      0.000
          OF   2237.000    -21.644      0.000      9.061      0.000      0.000      0.000      0.000      0.338      0.000
          OF   2238.000    -21.305      0.000      9.062      0.000      0.000      0.000      0.000      0.339      0.000
          OF   2239.000    -20.966      0.000      9.062      0.000      0.000      0.000      0.000      0.338      0.000
          OF   2240.000    -20.629      0.000      9.062      0.000      0.000      0.000      0.000      0.338      0.000
          OF   2241.000    -20.290      0.000      9.062      0.000      0.000      0.000      0.000      0.338      0.000
          OF   2242.000    -19.952      0.000      9.062      0.000      0.000      0.000      0.000      0.338      0.000
          OF   2243.000    -19.614      0.000      9.062      0.000      0.000      0.000      0.000      0.338      0.000
          OF   2244.000    -19.275      0.000      9.062      0.000      0.000      0.000      0.000      0.338      0.000
          OF   2245.000    -18.938      0.000      9.062      0.000      0.000      0.000      0.000      0.338      0.000
          OF   2246.000    -18.599      0.000      9.062      0.000      0.000      0.000      0.000      0.338      0.000
          OF   2247.000    -18.261      0.000      9.062      0.000      0.000      0.000      0.000      0.338      0.000
          OF   2248.000    -17.922      0.000      9.062      0.000      0.000      0.000      0.000      0.338      0.000
          OF   2249.000    -17.584      0.000      9.062      0.000      0.000      0.000      0.000      0.338      0.000
          OF   2250.000    -17.246      0.000      9.062      0.000      0.000      0.000      0.000      0.338      0.000
          OF   2251.000    -16.908      0.000      9.062      0.000      0.000      0.000      0.000      0.338      0.000
          OF   2252.000    -16.569      0.000      9.062      0.000      0.000      0.000      0.000      0.338      0.000
          OF   2253.000    -16.231      0.000      9.062      0.000      0.000      0.000      0.000      0.338      0.000
          OF   2254.000    -15.893      0.000      9.062      0.000      0.000      0.000      0.000      0.338      0.000
          OF   2255.000    -15.554      0.000      9.062      0.000      0.000      0.000      0.000      0.338      0.000
          OF   2256.000    -15.217      0.000      9.062      0.000      0.000      0.000      0.000      0.338      0.000
          OF   2258.000    -14.539      0.000      9.062      0.000      0.000      0.000      0.000      0.339      0.000
          OF   2259.000    -14.201      0.000      9.062      0.000      0.000      0.000      0.000      0.338      0.000
          OF   2261.000    -13.525      0.000      9.062      0.000      0.000      0.000      0.000      0.338      0.000
          OF   2262.000    -13.187      0.000      9.062      0.000      0.000      0.000      0.000      0.338      0.000
          OF   2264.000    -12.510      0.000      9.062      0.000      0.000      0.000      0.000      0.338      0.000
          OF   2265.000    -12.172      0.000      9.062      0.000      0.000      0.000      0.000      0.338      0.000
          OF   2268.000    -11.156      0.000      9.062      0.000      0.000      0.000      0.000      0.338      0.000
          OF   2270.000    -10.480      0.000      9.062      0.000      0.000      0.000      0.000      0.338      0.000
          OF   2271.000    -10.142      0.000      9.062      0.000      0.000      0.000      0.000      0.338      0.000
          OF   2276.000     -8.452      0.000      9.062      0.000      0.000      0.000      0.000      0.338      0.000
          OF   2277.000     -8.113      0.000      9.062      0.000      0.000      0.000      0.000      0.330      0.000
          OF   2283.000     -6.140      0.000      9.062      0.000      0.000      0.000      0.000      0.307      0.000
          OF   2303.000     -0.127      0.000      9.062      0.000      0.000      0.000      0.000      0.087      0.000
          IF   2366.000      1.125      0.000      9.063      0.000      0.000      0.000      0.000      0.026      0.000
          IF   2375.000      1.781      0.000      9.063      0.000      0.000      0.000      0.000      0.085      0.000
          IF   2383.000      2.569      0.000      9.063      0.000      0.000      0.000      0.000      0.086      0.000
          IF   2391.000      3.159      0.000      9.063      0.000      0.000      0.000      0.000      0.299      0.000
          IF   2404.700      9.063      0.000      9.063      0.000      0.000      0.000      0.000      0.431      0.000
          ET      0.000      0.000      0.000      0.000      0.000      0.000      0.000      0.000      0.000      0.000
1
            END        END      FETCH SURGE ELEV SURGE ELEV    INITIAL    INITIAL                BOTTOM    AVERAGE
        STATION  ELEVATION     LENGTH    10-YEAR   100-YEAR WAVE HEIGHT  W. PERIOD                SLOPE    A-ZONES
  IE      0.000     -0.789      1.000      1.000      9.116     10.095     14.102     56.140      0.012      0.000
            END        END  NEW SURGE  NEW SURGE                                                 BOTTOM    AVERAGE
        STATION  ELEVATION    10-YEAR   100-YEAR                                                  SLOPE    A-ZONES
  OF      3.300     -0.749      0.000      9.119      0.000      0.000      0.000      0.000      0.012      0.000
            END        END  NEW SURGE  NEW SURGE                                                 BOTTOM    AVERAGE
        STATION  ELEVATION    10-YEAR   100-YEAR                                                  SLOPE    A-ZONES
  OF      6.600     -0.708      0.000      9.121      0.000      0.000      0.000      0.000      0.013      0.000
            END        END  NEW SURGE  NEW SURGE                                                 BOTTOM    AVERAGE
        STATION  ELEVATION    10-YEAR   100-YEAR                                                  SLOPE    A-ZONES
  OF      9.800     -0.667      0.000      9.124      0.000      0.000      0.000      0.000      0.013      0.000
            END        END  NEW SURGE  NEW SURGE                                                 BOTTOM    AVERAGE
        STATION  ELEVATION    10-YEAR   100-YEAR                                                  SLOPE    A-ZONES
  OF     13.100     -0.621      0.000      9.127      0.000      0.000      0.000      0.000      0.018      0.000
            END        END  NEW SURGE  NEW SURGE                                                 BOTTOM    AVERAGE
        STATION  ELEVATION    10-YEAR   100-YEAR                                                  SLOPE    A-ZONES
  OF     16.400     -0.549      0.000      9.129      0.000      0.000      0.000      0.000      0.022      0.000
            END        END  NEW SURGE  NEW SURGE                                                 BOTTOM    AVERAGE
        STATION  ELEVATION    10-YEAR   100-YEAR                                                  SLOPE    A-ZONES
  OF     19.700     -0.477      0.000      9.132      0.000      0.000      0.000      0.000      0.022      0.000
            END        END  NEW SURGE  NEW SURGE                                                 BOTTOM    AVERAGE
        STATION  ELEVATION    10-YEAR   100-YEAR                                                  SLOPE    A-ZONES
  OF     23.000     -0.404      0.000      9.134      0.000      0.000      0.000      0.000      0.022      0.000
            END        END  NEW SURGE  NEW SURGE                                                 BOTTOM    AVERAGE
        STATION  ELEVATION    10-YEAR   100-YEAR                                                  SLOPE    A-ZONES
  OF     26.200     -0.332      0.000      9.137      0.000      0.000      0.000      0.000      0.022      0.000
            END        END  NEW SURGE  NEW SURGE                                                 BOTTOM    AVERAGE
        STATION  ELEVATION    10-YEAR   100-YEAR                                                  SLOPE    A-ZONES
  OF     29.500     -0.260      0.000      9.140      0.000      0.000      0.000      0.000      0.022      0.000
            END        END  NEW SURGE  NEW SURGE                                                 BOTTOM    AVERAGE
        STATION  ELEVATION    10-YEAR   100-YEAR                                                  SLOPE    A-ZONES
  OF     32.800     -0.188      0.000      9.143      0.000      0.000      0.000      0.000      0.022      0.000
            END        END  NEW SURGE  NEW SURGE                                                 BOTTOM    AVERAGE
        STATION  ELEVATION    10-YEAR   100-YEAR                                                  SLOPE    A-ZONES
  OF     36.100     -0.115      0.000      9.146      0.000      0.000      0.000      0.000      0.022      0.000
            END        END  NEW SURGE  NEW SURGE                                                 BOTTOM    AVERAGE
        STATION  ELEVATION    10-YEAR   100-YEAR                                                  SLOPE    A-ZONES
  OF     39.400     -0.043      0.000      9.149      0.000      0.000      0.000      0.000      0.001      0.000
            END        END  NEW SURGE  NEW SURGE                                                 BOTTOM    AVERAGE
        STATION  ELEVATION    10-YEAR   100-YEAR                                                  SLOPE    A-ZONES
  OF     42.700     -0.110      0.000      9.154      0.000      0.000      0.000      0.000     -0.042      0.000
            END        END  NEW SURGE  NEW SURGE                                                 BOTTOM    AVERAGE
        STATION  ELEVATION    10-YEAR   100-YEAR                                                  SLOPE    A-ZONES
  OF     45.900     -0.315      0.000      9.161      0.000      0.000      0.000      0.000     -0.037      0.000
            END        END  NEW SURGE  NEW SURGE                                                 BOTTOM    AVERAGE
        STATION  ELEVATION    10-YEAR   100-YEAR                                                  SLOPE    A-ZONES
  OF     49.200     -0.351      0.000      9.165      0.000      0.000      0.000      0.000     -0.005      0.000
            END        END  NEW SURGE  NEW SURGE                                                 BOTTOM    AVERAGE
        STATION  ELEVATION    10-YEAR   100-YEAR                                                  SLOPE    A-ZONES
  OF     52.500     -0.351      0.000      9.169      0.000      0.000      0.000      0.000      0.000      0.000
            END        END  NEW SURGE  NEW SURGE                                                 BOTTOM    AVERAGE
        STATION  ELEVATION    10-YEAR   100-YEAR                                                  SLOPE    A-ZONES
  OF     55.800     -0.351      0.000      9.172      0.000      0.000      0.000      0.000      0.000      0.000
            END        END  NEW SURGE  NEW SURGE                                                 BOTTOM    AVERAGE
        STATION  ELEVATION    10-YEAR   100-YEAR                                                  SLOPE    A-ZONES
  OF     59.100     -0.351      0.000      9.175      0.000      0.000      0.000      0.000     -0.003      0.000
            END        END  NEW SURGE  NEW SURGE                                                 BOTTOM    AVERAGE
        STATION  ELEVATION    10-YEAR   100-YEAR                                                  SLOPE    A-ZONES
  OF     62.300     -0.373      0.000      9.178      0.000      0.000      0.000      0.000     -0.007      0.000
            END        END  NEW SURGE  NEW SURGE                                                 BOTTOM    AVERAGE
        STATION  ELEVATION    10-YEAR   100-YEAR                                                  SLOPE    A-ZONES
  OF     65.600     -0.394      0.000      9.181      0.000      0.000      0.000      0.000     -0.007      0.000
            END        END  NEW SURGE  NEW SURGE                                                 BOTTOM    AVERAGE
        STATION  ELEVATION    10-YEAR   100-YEAR                                                  SLOPE    A-ZONES
  OF     68.900     -0.416      0.000      9.185      0.000      0.000      0.000      0.000     -0.007      0.000
            END        END  NEW SURGE  NEW SURGE                                                 BOTTOM    AVERAGE
        STATION  ELEVATION    10-YEAR   100-YEAR                                                  SLOPE    A-ZONES
  OF     72.200     -0.438      0.000      9.188      0.000      0.000      0.000      0.000      0.011      0.000
            END        END  NEW SURGE  NEW SURGE                                                 BOTTOM    AVERAGE
        STATION  ELEVATION    10-YEAR   100-YEAR                                                  SLOPE    A-ZONES
  OF     75.500     -0.341      0.000      9.190      0.000      0.000      0.000      0.000      0.052      0.000
            END        END  NEW SURGE  NEW SURGE                                                 BOTTOM    AVERAGE
        STATION  ELEVATION    10-YEAR   100-YEAR                                                  SLOPE    A-ZONES
  OF     78.700     -0.097      0.000      9.190      0.000      0.000      0.000      0.000      0.073      0.000
            END        END  NEW SURGE  NEW SURGE                                                 BOTTOM    AVERAGE
        STATION  ELEVATION    10-YEAR   100-YEAR                                                  SLOPE    A-ZONES
  IF     82.000      0.137      0.000      9.191      0.000      0.000      0.000      0.000      0.063      0.000
            END        END  NEW SURGE  NEW SURGE                                                 BOTTOM    AVERAGE
        STATION  ELEVATION    10-YEAR   100-YEAR                                                  SLOPE    A-ZONES
  IF     85.300      0.316      0.000      9.192      0.000      0.000      0.000      0.000      0.054      0.000
            END        END  NEW SURGE  NEW SURGE                                                 BOTTOM    AVERAGE
        STATION  ELEVATION    10-YEAR   100-YEAR                                                  SLOPE    A-ZONES
  IF     88.600      0.496      0.000      9.194      0.000      0.000      0.000      0.000      0.054      0.000
            END        END  NEW SURGE  NEW SURGE                                                 BOTTOM    AVERAGE
        STATION  ELEVATION    10-YEAR   100-YEAR                                                  SLOPE    A-ZONES
  IF     91.900      0.675      0.000      9.196      0.000      0.000      0.000      0.000      0.043      0.000
            END        END  NEW SURGE  NEW SURGE                                                 BOTTOM    AVERAGE
        STATION  ELEVATION    10-YEAR   100-YEAR                                                  SLOPE    A-ZONES
  IF     95.100      0.773      0.000      9.199      0.000      0.000      0.000      0.000      0.018      0.000
            END        END  NEW SURGE  NEW SURGE                                                 BOTTOM    AVERAGE
        STATION  ELEVATION    10-YEAR   100-YEAR                                                  SLOPE    A-ZONES
  IF     98.400      0.791      0.000      9.204      0.000      0.000      0.000      0.000      0.005      0.000
            END        END  NEW SURGE  NEW SURGE                                                 BOTTOM    AVERAGE
        STATION  ELEVATION    10-YEAR   100-YEAR                                                  SLOPE    A-ZONES
  IF    101.700      0.809      0.000      9.208      0.000      0.000      0.000      0.000      0.005      0.000
            END        END  NEW SURGE  NEW SURGE                                                 BOTTOM    AVERAGE
        STATION  ELEVATION    10-YEAR   100-YEAR                                                  SLOPE    A-ZONES
  IF    105.000      0.827      0.000      9.212      0.000      0.000      0.000      0.000      0.005      0.000
            END        END  NEW SURGE  NEW SURGE                                                 BOTTOM    AVERAGE
        STATION  ELEVATION    10-YEAR   100-YEAR                                                  SLOPE    A-ZONES
  IF    108.300      0.845      0.000      9.216      0.000      0.000      0.000      0.000      0.006      0.000
            END        END  NEW SURGE  NEW SURGE                                                 BOTTOM    AVERAGE
        STATION  ELEVATION    10-YEAR   100-YEAR                                                  SLOPE    A-ZONES
  IF    111.500      0.867      0.000      9.219      0.000      0.000      0.000      0.000      0.051      0.000
            END        END  NEW SURGE  NEW SURGE                                                 BOTTOM    AVERAGE
        STATION  ELEVATION    10-YEAR   100-YEAR                                                  SLOPE    A-ZONES
  IF    114.800      1.177      0.000      9.219      0.000      0.000      0.000      0.000      0.094      0.000
            END        END  NEW SURGE  NEW SURGE                                                 BOTTOM    AVERAGE
        STATION  ELEVATION    10-YEAR   100-YEAR                                                  SLOPE    A-ZONES
  IF    118.100      1.486      0.000      9.220      0.000      0.000      0.000      0.000      0.103      0.000
            END        END  NEW SURGE  NEW SURGE                                                 BOTTOM    AVERAGE
        STATION  ELEVATION    10-YEAR   100-YEAR                                                  SLOPE    A-ZONES
  IF    121.400      1.859      0.000      9.220      0.000      0.000      0.000      0.000      0.120      0.000
            END        END  NEW SURGE  NEW SURGE                                                 BOTTOM    AVERAGE
        STATION  ELEVATION    10-YEAR   100-YEAR                                                  SLOPE    A-ZONES
  IF    124.700      2.278      0.000      9.219      0.000      0.000      0.000      0.000      0.127      0.000
            END        END  NEW SURGE  NEW SURGE                                                 BOTTOM    AVERAGE
        STATION  ELEVATION    10-YEAR   100-YEAR                                                  SLOPE    A-ZONES
  IF    128.000      2.697      0.000      9.220      0.000      0.000      0.000      0.000      0.142      0.000
            END        END  NEW SURGE  NEW SURGE                                                 BOTTOM    AVERAGE
        STATION  ELEVATION    10-YEAR   100-YEAR                                                  SLOPE    A-ZONES
  IF    131.200      3.203      0.000      9.220      0.000      0.000      0.000      0.000      0.162      0.000
            END        END  NEW SURGE  NEW SURGE                                                 BOTTOM    AVERAGE
        STATION  ELEVATION    10-YEAR   100-YEAR                                                  SLOPE    A-ZONES
  IF    134.500      3.748      0.000      9.222      0.000      0.000      0.000      0.000      0.158      0.000
            END        END  NEW SURGE  NEW SURGE                                                 BOTTOM    AVERAGE
        STATION  ELEVATION    10-YEAR   100-YEAR                                                  SLOPE    A-ZONES
  IF    137.800      4.248      0.000      9.229      0.000      0.000      0.000      0.000      0.141      0.000
            END        END  NEW SURGE  NEW SURGE                                                 BOTTOM    AVERAGE
        STATION  ELEVATION    10-YEAR   100-YEAR                                                  SLOPE    A-ZONES
  IF    141.100      4.679      0.000      9.246      0.000      0.000      0.000      0.000      0.131      0.000
            END        END  NEW SURGE  NEW SURGE                                                 BOTTOM    AVERAGE
        STATION  ELEVATION    10-YEAR   100-YEAR                                                  SLOPE    A-ZONES
  IF    144.400      5.109      0.000      9.267      0.000      0.000      0.000      0.000      0.136      0.000
            END        END  NEW SURGE  NEW SURGE                                                 BOTTOM    AVERAGE
        STATION  ELEVATION    10-YEAR   100-YEAR                                                  SLOPE    A-ZONES
  IF    147.600      5.565      0.000      9.289      0.000      0.000      0.000      0.000      0.228      0.000
            END        END  NEW SURGE  NEW SURGE                                                 BOTTOM    AVERAGE
        STATION  ELEVATION    10-YEAR   100-YEAR                                                  SLOPE    A-ZONES
  IF    150.900      6.591      0.000      9.369      0.000      0.000      0.000      0.000      0.311      0.000
            END        END  NEW SURGE  NEW SURGE                                                 BOTTOM    AVERAGE
        STATION  ELEVATION    10-YEAR   100-YEAR                                                  SLOPE    A-ZONES
  IF    154.200      7.617      0.000      9.632      0.000      0.000      0.000      0.000      0.311      0.000
            END        END  NEW SURGE  NEW SURGE                                                 BOTTOM    AVERAGE
        STATION  ELEVATION    10-YEAR   100-YEAR                                                  SLOPE    A-ZONES
  IF    157.500      8.643      0.000      9.919      0.000      0.000      0.000      0.000      0.311      0.000
            END        END  NEW SURGE  NEW SURGE                                                 BOTTOM    AVERAGE
[...]
                                       1609.00                 1.00                 9.07
                                       1741.00                 1.00                 9.07
                                       1823.00                 1.00                 9.06
                                       1938.00                 1.00                 9.06
                                       1986.00                 1.00                 9.06
                                       2056.00                 1.00                 9.06
                                       2138.00                 1.00                 9.06
                                       2238.00                 1.00                 9.06
                                       2366.00                 1.00                 9.06
                                                       PART5  LOCATION OF V ZONES
                                             STATION OF GUTTER          LOCATION OF ZONE
                                                      146.53               WINDWARD
                                                   PART6 NUMBERED A ZONES AND V ZONES
                                        STATION OF GUTTER  ELEVATION  ZONE DESIGNATION   FHF
                                               0.00          14.44
                                                                          V23  EL=14     130
                                               3.30          14.43
                                                                          V23  EL=14     130
                                               6.60          14.41
                                                                          V23  EL=14     130
                                               9.80          14.39
                                                                          V23  EL=14     130
                                              13.10          14.37
                                                                          V23  EL=14     130
                                              16.40          14.34
                                                                          V23  EL=14     130
                                              19.70          14.30
                                                                          V23  EL=14     130
                                              23.00          14.27
                                                                          V23  EL=14     130
                                              26.20          14.23
                                                                          V23  EL=14     130
                                              29.50          14.20
                                                                          V23  EL=14     130
                                              32.80          14.17
                                                                          V23  EL=14     130
                                              36.10          14.13
                                                                          V23  EL=14     130
                                              39.40          14.10
                                                                          V23  EL=14     130
                                              42.70          14.11
                                                                          V23  EL=14     130
                                              45.90          14.15
                                                                          V23  EL=14     130
                                              49.20          14.16
                                                                          V23  EL=14     130
                                              52.50          14.16
                                                                          V23  EL=14     130
                                              55.80          14.17
                                                                          V23  EL=14     130
                                              59.10          14.17
                                                                          V23  EL=14     130
                                              62.30          14.18
                                                                          V23  EL=14     130
                                              65.60          14.19
                                                                          V23  EL=14     130
                                              68.90          14.20
                                                                          V23  EL=14     130
                                              72.20          14.20
                                                                          V23  EL=14     130
                                              75.50          14.19
                                                                          V23  EL=14     130
                                              78.70          14.16
                                                                          V23  EL=14     130
                                              82.00          14.07
                                                                          V23  EL=14     130
                                              85.30          13.97
                                                                          V23  EL=14     130
                                              88.60          13.88
                                                                          V23  EL=14     130
                                              91.90          13.79
                                                                          V23  EL=14     130
                                              95.10          13.74
                                                                          V23  EL=14     130
                                              98.40          13.74
                                                                          V23  EL=14     130
                                             101.70          13.73
                                                                          V23  EL=14     130
                                             105.00          13.73
                                                                          V23  EL=14     130
                                             108.30          13.73
                                                                          V23  EL=14     130
                                             111.50          13.72
                                                                          V23  EL=14     130
                                             114.80          13.56
                                                                          V23  EL=14     130
                                             115.93          13.50
                                                                          V23  EL=13     130
                                             118.10          13.39
                                                                          V23  EL=13     130
                                             121.40          13.19
                                                                          V23  EL=13     130
                                             124.70          12.97
                                                                          V23  EL=13     130
                                             128.00          12.75
                                                                          V23  EL=13     130
                                             130.90          12.50
                                                                          V23  EL=12     130
                                             131.20          12.47
                                                                          V23  EL=12     130
                                             134.50          12.19
                                                                          V23  EL=12     130
                                             137.80          11.93
                                                                          V23  EL=12     130
                                             141.10          11.72
                                                                          V23  EL=12     130
                                             144.40          11.52
                                                                          V23  EL=12     130
                                             144.74          11.50
                                                                          V23  EL=11     130
                                             146.53          11.38
                                                                          A18  EL=11      90
                                             147.60          11.31
                                                                          A18  EL=11      90
                                             150.90          10.88
                                                                          A18  EL=11      90
                                             154.20          10.73
                                                                          A18  EL=11      90
                                             157.50          10.61
                                                                          A18  EL=11      90
                                             160.80          10.51
                                                                          A18  EL=11      90
                                             160.86          10.50
                                                                          A18  EL=10      90
                                             162.50          10.22
                                             277.80           9.06
                                                                          A18  EL= 9      90
                                             296.50           9.14
                                                                          A18  EL= 9      90
                                             305.00           9.16
                                                                          A18  EL= 9      90
                                             457.00           9.38
                                                                          A18  EL= 9      90
                                             468.00           9.40
                                                                          A18  EL= 9      90
                                             492.00           9.42
                                                                          A18  EL= 9      90
                                             502.00           9.43
                                                                          A18  EL= 9      90
                                             518.00           9.07
                                             530.40           9.06
                                                                          A18  EL= 9      90
                                             548.50           9.13
                                                                          A18  EL= 9      90
                                             560.00           9.16
                                                                          A18  EL= 9      90
                                             650.50           9.31
                                                                          A18  EL= 9      90
                                             660.50           9.32
                                                                          A18  EL= 9      90
                                             708.00           9.38
                                                                          A18  EL= 9      90
                                             716.00           9.39
                                                                          A18  EL= 9      90
                                             816.35           9.50
                                                                          A18  EL=10      90
                                             880.00           9.56
                                                                          A18  EL=10      90
                                             885.00           9.57
                                                                          A18  EL=10      90
                                             930.50           9.61
                                                                          A18  EL=10      90
                                             940.00           9.62
                                                                          A18  EL=10      90
                                            1117.00           9.76
                                                                          A18  EL=10      90
                                            1129.00           9.77
                                                                          A18  EL=10      90
                                            1149.00           9.79
                                                                          A18  EL=10      90
                                            1156.00           9.80
                                                                          A18  EL=10      90
                                            1171.50           9.81
                                                                          A18  EL=10      90
                                            1179.50           9.81
                                                                          A18  EL=10      90
                                            1205.50           9.83
                                                                          A18  EL=10      90
                                            1215.00           9.84
                                                                          A18  EL=10      90
                                            1230.50           9.85
                                                                          A18  EL=10      90
                                            1235.00           9.86
                                                                          A18  EL=10      90
                                            1251.50           9.86
                                                                          A18  EL=10      90
                                            1263.50           9.87
                                                                          A18  EL=10      90
                                            1283.00           9.89
                                                                          A18  EL=10      90
                                            1291.50           9.89
                                                                          A18  EL=10      90
                                            1314.00           9.90
                                                                          A18  EL=10      90
                                            1323.00           9.90
                                                                          A18  EL=10      90
                                            1348.00           9.91
                                                                          A18  EL=10      90
                                            1354.50           9.88
                                                                          A18  EL=10      90
                                            1462.50          10.00
                                                                          A18  EL=10      90
                                            1470.50          10.01
                                                                          A18  EL=10      90
                                            1513.00          10.04
                                                                          A18  EL=10      90
                                            1609.00          10.11
                                                                          A18  EL=10      90
                                            1616.00          10.11
                                                                          A18  EL=10      90
                                            1741.00          10.19
                                                                          A18  EL=10      90
                                            1823.00          10.24
                                                                          A18  EL=10      90
                                            1825.00          10.24
                                                                          A18  EL=10      90
                                            1938.00          10.31
                                                                          A18  EL=10      90
                                            1986.00          10.33
                                                                          A18  EL=10      90
                                            2055.00          10.37
                                                                          A18  EL=10      90
                                            2056.00          10.37
                                                                          A18  EL=10      90
                                            2137.00          10.42
                                                                          A18  EL=10      90
                                            2138.00          10.41
                                                                          A18  EL=10      90
                                            2237.00          10.47
                                                                          A18  EL=10      90
                                            2238.00          10.47
                                                                          A18  EL=10      90
                                            2287.73          10.50
                                                                          A18  EL=11      90
                                            2303.00          10.51
                                                                          A18  EL=11      90
                                            2366.00          10.54
                                                                          A18  EL=11      90
                                            2391.19          10.50
                                                                          A18  EL=10      90
                                            2400.63           9.50
                                                                          A18  EL= 9      90
                                            2404.70           9.07
                                                  ZONE TERMINATED AT END OF TRANSECT
                                                  PART 7   POSTSCRIPT NOTES
                         PS#  1   START(390377.2183,4810601.9468)                                              
                         PS#  2   END(390139.3954,4811325.3867)                                                
-1.000000e+00
