 WAVE HEIGHT COMPUTATIONS FOR FLOOD INSURANCE STUDIES (WHAFIS VERSION 4.0G, 08_2007)
 Executed on: Fri Apr 17 11:42:02 2020
 Input file:  C:\FEMA-TransectAnalysis\LOMR-TransectAnalysis-Portland\3_whafis\whafis4\CM-54.dat                                              
 Output file: C:\FEMA-TransectAnalysis\LOMR-TransectAnalysis-Portland\3_whafis\whafis4\CM-54.out                                              
                                                              header                                                                
                                                     THIS IS A 100-YEAR CASE
                                       THE FOLLOWING NON-DEFAULT WIND SPEEDS ARE BEING USED
                                            WINDIF  56.14  WINDOF  56.14  WINDVH  60.00
                                                             PART1 INPUT
          IE      0.000    -10.979      1.000      1.000      8.987     18.659     14.102     56.140      0.007      0.000
          OF      1.000    -10.972      0.000      8.987      0.000      0.000      0.000      0.000      0.007      0.000
          OF      2.000    -10.965      0.000      8.987      0.000      0.000      0.000      0.000      0.007      0.000
          OF      3.300    -10.955      0.000      8.989      0.000      0.000      0.000      0.000      0.007      0.000
          OF      6.600    -10.932      0.000      8.991      0.000      0.000      0.000      0.000      0.007      0.000
          OF      9.800    -10.909      0.000      8.994      0.000      0.000      0.000      0.000      0.007      0.000
          OF     13.100    -10.886      0.000      8.996      0.000      0.000      0.000      0.000      0.007      0.000
          OF     16.400    -10.863      0.000      8.998      0.000      0.000      0.000      0.000      0.007      0.000
          OF     19.700    -10.841      0.000      9.001      0.000      0.000      0.000      0.000      0.005      0.000
          OF     23.000    -10.830      0.000      9.004      0.000      0.000      0.000      0.000      0.003      0.000
          OF     26.200    -10.820      0.000      9.006      0.000      0.000      0.000      0.000      0.003      0.000
          OF     29.500    -10.810      0.000      9.009      0.000      0.000      0.000      0.000      0.003      0.000
          OF     32.800    -10.800      0.000      9.012      0.000      0.000      0.000      0.000      0.003      0.000
          OF     36.100    -10.790      0.000      9.014      0.000      0.000      0.000      0.000      0.003      0.000
          OF     39.400    -10.780      0.000      9.017      0.000      0.000      0.000      0.000      0.003      0.000
          OF     42.700    -10.770      0.000      9.019      0.000      0.000      0.000      0.000      0.003      0.000
          OF     45.900    -10.760      0.000      9.022      0.000      0.000      0.000      0.000      0.003      0.000
          OF     49.200    -10.750      0.000      9.024      0.000      0.000      0.000      0.000      0.003      0.000
          OF     52.500    -10.740      0.000      9.027      0.000      0.000      0.000      0.000      0.003      0.000
          OF     55.800    -10.730      0.000      9.030      0.000      0.000      0.000      0.000      0.003      0.000
          OF     59.100    -10.720      0.000      9.032      0.000      0.000      0.000      0.000      0.003      0.000
          OF     62.300    -10.709      0.000      9.035      0.000      0.000      0.000      0.000      0.003      0.000
          OF     65.600    -10.699      0.000      9.037      0.000      0.000      0.000      0.000      0.003      0.000
          OF     68.900    -10.689      0.000      9.040      0.000      0.000      0.000      0.000      0.003      0.000
          OF     72.200    -10.679      0.000      9.042      0.000      0.000      0.000      0.000      0.003      0.000
          OF     75.500    -10.669      0.000      9.045      0.000      0.000      0.000      0.000      0.003      0.000
          OF     78.700    -10.659      0.000      9.047      0.000      0.000      0.000      0.000      0.003      0.000
          OF     82.000    -10.649      0.000      9.050      0.000      0.000      0.000      0.000      0.003      0.000
          OF     85.300    -10.639      0.000      9.052      0.000      0.000      0.000      0.000      0.003      0.000
          OF     88.600    -10.629      0.000      9.055      0.000      0.000      0.000      0.000      0.003      0.000
          OF     91.900    -10.619      0.000      9.057      0.000      0.000      0.000      0.000      0.003      0.000
          OF     95.100    -10.609      0.000      9.060      0.000      0.000      0.000      0.000      0.003      0.000
          OF     98.400    -10.599      0.000      9.063      0.000      0.000      0.000      0.000      0.003      0.000
          OF    101.700    -10.589      0.000      9.065      0.000      0.000      0.000      0.000      0.003      0.000
          OF    105.000    -10.579      0.000      9.067      0.000      0.000      0.000      0.000      0.003      0.000
          OF    108.300    -10.569      0.000      9.070      0.000      0.000      0.000      0.000      0.003      0.000
          OF    111.500    -10.559      0.000      9.072      0.000      0.000      0.000      0.000      0.003      0.000
          OF    114.800    -10.549      0.000      9.074      0.000      0.000      0.000      0.000      0.003      0.000
          OF    118.100    -10.539      0.000      9.076      0.000      0.000      0.000      0.000      0.003      0.000
          OF    121.400    -10.529      0.000      9.079      0.000      0.000      0.000      0.000      0.003      0.000
          OF    124.700    -10.519      0.000      9.080      0.000      0.000      0.000      0.000      0.003      0.000
          OF    128.000    -10.509      0.000      9.083      0.000      0.000      0.000      0.000      0.003      0.000
          OF    131.200    -10.499      0.000      9.085      0.000      0.000      0.000      0.000      0.003      0.000
          OF    134.500    -10.489      0.000      9.087      0.000      0.000      0.000      0.000      0.003      0.000
          OF    137.800    -10.479      0.000      9.089      0.000      0.000      0.000      0.000      0.003      0.000
          OF    141.100    -10.469      0.000      9.091      0.000      0.000      0.000      0.000      0.003      0.000
          OF    144.400    -10.459      0.000      9.093      0.000      0.000      0.000      0.000      0.003      0.000
          OF    147.600    -10.449      0.000      9.095      0.000      0.000      0.000      0.000      0.003      0.000
          OF    150.900    -10.439      0.000      9.098      0.000      0.000      0.000      0.000      0.003      0.000
          OF    154.200    -10.429      0.000      9.100      0.000      0.000      0.000      0.000      0.003      0.000
          OF    157.500    -10.419      0.000      9.102      0.000      0.000      0.000      0.000      0.003      0.000
          OF    160.800    -10.409      0.000      9.105      0.000      0.000      0.000      0.000      0.003      0.000
          OF    164.000    -10.399      0.000      9.107      0.000      0.000      0.000      0.000      0.003      0.000
          OF    167.300    -10.389      0.000      9.109      0.000      0.000      0.000      0.000      0.003      0.000
          OF    170.600    -10.379      0.000      9.111      0.000      0.000      0.000      0.000      0.003      0.000
          OF    173.900    -10.369      0.000      9.113      0.000      0.000      0.000      0.000      0.003      0.000
          OF    177.200    -10.358      0.000      9.115      0.000      0.000      0.000      0.000      0.003      0.000
          OF    180.400    -10.348      0.000      9.117      0.000      0.000      0.000      0.000      0.003      0.000
          OF    183.700    -10.338      0.000      9.119      0.000      0.000      0.000      0.000      0.003      0.000
          OF    187.000    -10.328      0.000      9.121      0.000      0.000      0.000      0.000      0.003      0.000
          OF    190.300    -10.318      0.000      9.123      0.000      0.000      0.000      0.000      0.003      0.000
          OF    193.600    -10.308      0.000      9.125      0.000      0.000      0.000      0.000      0.003      0.000
          OF    196.800    -10.298      0.000      9.126      0.000      0.000      0.000      0.000      0.003      0.000
          OF    200.100    -10.288      0.000      9.128      0.000      0.000      0.000      0.000      0.003      0.000
          OF    203.400    -10.278      0.000      9.130      0.000      0.000      0.000      0.000      0.003      0.000
          OF    206.700    -10.268      0.000      9.131      0.000      0.000      0.000      0.000      0.003      0.000
          OF    210.000    -10.258      0.000      9.133      0.000      0.000      0.000      0.000      0.003      0.000
          OF    213.300    -10.248      0.000      9.135      0.000      0.000      0.000      0.000      0.003      0.000
          OF    216.500    -10.238      0.000      9.136      0.000      0.000      0.000      0.000      0.003      0.000
          OF    219.800    -10.228      0.000      9.138      0.000      0.000      0.000      0.000      0.003      0.000
          OF    223.100    -10.218      0.000      9.139      0.000      0.000      0.000      0.000      0.004      0.000
          OF    226.400    -10.198      0.000      9.141      0.000      0.000      0.000      0.000      0.007      0.000
          OF    229.700    -10.171      0.000      9.142      0.000      0.000      0.000      0.000      0.009      0.000
          OF    232.900    -10.143      0.000      9.144      0.000      0.000      0.000      0.000      0.009      0.000
          OF    236.200    -10.116      0.000      9.145      0.000      0.000      0.000      0.000      0.008      0.000
          OF    239.500    -10.088      0.000      9.146      0.000      0.000      0.000      0.000      0.009      0.000
          OF    242.800    -10.060      0.000      9.148      0.000      0.000      0.000      0.000      0.008      0.000
          OF    246.100    -10.033      0.000      9.149      0.000      0.000      0.000      0.000      0.009      0.000
          OF    249.300    -10.005      0.000      9.151      0.000      0.000      0.000      0.000      0.008      0.000
          OF    252.600     -9.978      0.000      9.152      0.000      0.000      0.000      0.000      0.008      0.000
          OF    255.900     -9.951      0.000      9.154      0.000      0.000      0.000      0.000      0.008      0.000
          OF    259.200     -9.923      0.000      9.155      0.000      0.000      0.000      0.000      0.008      0.000
          OF    262.500     -9.896      0.000      9.157      0.000      0.000      0.000      0.000      0.009      0.000
          OF    265.700     -9.868      0.000      9.158      0.000      0.000      0.000      0.000      0.009      0.000
          OF    269.000     -9.840      0.000      9.159      0.000      0.000      0.000      0.000      0.008      0.000
          OF    272.300     -9.813      0.000      9.161      0.000      0.000      0.000      0.000      0.008      0.000
          OF    275.600     -9.785      0.000      9.162      0.000      0.000      0.000      0.000      0.008      0.000
          OF    278.900     -9.758      0.000      9.163      0.000      0.000      0.000      0.000      0.008      0.000
          OF    282.200     -9.730      0.000      9.165      0.000      0.000      0.000      0.000      0.009      0.000
          OF    285.400     -9.703      0.000      9.167      0.000      0.000      0.000      0.000      0.009      0.000
          OF    288.700     -9.675      0.000      9.168      0.000      0.000      0.000      0.000      0.008      0.000
          OF    292.000     -9.648      0.000      9.169      0.000      0.000      0.000      0.000      0.008      0.000
          OF    295.300     -9.620      0.000      9.170      0.000      0.000      0.000      0.000      0.008      0.000
          OF    298.600     -9.592      0.000      9.172      0.000      0.000      0.000      0.000      0.009      0.000
          OF    301.800     -9.565      0.000      9.173      0.000      0.000      0.000      0.000      0.009      0.000
          OF    305.100     -9.537      0.000      9.175      0.000      0.000      0.000      0.000      0.008      0.000
          OF    308.400     -9.510      0.000      9.176      0.000      0.000      0.000      0.000      0.008      0.000
          OF    311.700     -9.482      0.000      9.177      0.000      0.000      0.000      0.000      0.008      0.000
          OF    315.000     -9.454      0.000      9.178      0.000      0.000      0.000      0.000      0.009      0.000
          OF    318.200     -9.420      0.000      9.179      0.000      0.000      0.000      0.000      0.010      0.000
          OF    321.500     -9.386      0.000      9.181      0.000      0.000      0.000      0.000      0.010      0.000
          OF    324.800     -9.352      0.000      9.182      0.000      0.000      0.000      0.000      0.010      0.000
          OF    328.100     -9.318      0.000      9.183      0.000      0.000      0.000      0.000      0.010      0.000
          OF    331.400     -9.284      0.000      9.184      0.000      0.000      0.000      0.000      0.010      0.000
          OF    334.600     -9.250      0.000      9.185      0.000      0.000      0.000      0.000      0.010      0.000
          OF    337.900     -9.216      0.000      9.186      0.000      0.000      0.000      0.000      0.010      0.000
          OF    341.200     -9.182      0.000      9.187      0.000      0.000      0.000      0.000      0.010      0.000
          OF    344.500     -9.148      0.000      9.189      0.000      0.000      0.000      0.000      0.010      0.000
          OF    347.800     -9.114      0.000      9.189      0.000      0.000      0.000      0.000      0.010      0.000
          OF    351.000     -9.080      0.000      9.191      0.000      0.000      0.000      0.000      0.010      0.000
          OF    354.300     -9.046      0.000      9.192      0.000      0.000      0.000      0.000      0.010      0.000
          OF    357.600     -9.012      0.000      9.193      0.000      0.000      0.000      0.000      0.010      0.000
          OF    360.900     -8.978      0.000      9.194      0.000      0.000      0.000      0.000      0.010      0.000
          OF    364.200     -8.944      0.000      9.195      0.000      0.000      0.000      0.000      0.010      0.000
          OF    367.500     -8.910      0.000      9.196      0.000      0.000      0.000      0.000      0.010      0.000
          OF    370.700     -8.876      0.000      9.197      0.000      0.000      0.000      0.000      0.010      0.000
          OF    374.000     -8.842      0.000      9.199      0.000      0.000      0.000      0.000      0.010      0.000
          OF    377.300     -8.808      0.000      9.200      0.000      0.000      0.000      0.000      0.010      0.000
          OF    380.600     -8.774      0.000      9.201      0.000      0.000      0.000      0.000      0.010      0.000
          OF    383.900     -8.740      0.000      9.202      0.000      0.000      0.000      0.000      0.010      0.000
          OF    387.100     -8.706      0.000      9.203      0.000      0.000      0.000      0.000      0.010      0.000
          OF    390.400     -8.672      0.000      9.204      0.000      0.000      0.000      0.000      0.010      0.000
          OF    393.700     -8.639      0.000      9.205      0.000      0.000      0.000      0.000      0.010      0.000
          OF    397.000     -8.604      0.000      9.207      0.000      0.000      0.000      0.000      0.010      0.000
          OF    400.300     -8.571      0.000      9.208      0.000      0.000      0.000      0.000      0.010      0.000
          OF    403.500     -8.536      0.000      9.209      0.000      0.000      0.000      0.000      0.010      0.000
          OF    406.800     -8.502      0.000      9.210      0.000      0.000      0.000      0.000      0.010      0.000
          OF    410.100     -8.469      0.000      9.211      0.000      0.000      0.000      0.000      0.010      0.000
          OF    413.400     -8.434      0.000      9.212      0.000      0.000      0.000      0.000      0.010      0.000
          OF    416.700     -8.401      0.000      9.214      0.000      0.000      0.000      0.000      0.010      0.000
          OF    419.900     -8.366      0.000      9.214      0.000      0.000      0.000      0.000      0.013      0.000
          OF    423.200     -8.315      0.000      9.210      0.000      0.000      0.000      0.000      0.096      0.000
          OF    426.500     -7.735      0.000      9.205      0.000      0.000      0.000      0.000      0.189      0.000
          OF    429.800     -7.065      0.000      9.201      0.000      0.000      0.000      0.000      0.203      0.000
          OF    433.100     -6.395      0.000      9.196      0.000      0.000      0.000      0.000      0.203      0.000
          OF    436.400     -5.725      0.000      9.193      0.000      0.000      0.000      0.000      0.206      0.000
          OF    439.600     -5.055      0.000      9.189      0.000      0.000      0.000      0.000      0.206      0.000
          OF    442.900     -4.385      0.000      9.186      0.000      0.000      0.000      0.000      0.203      0.000
          OF    446.200     -3.715      0.000      9.182      0.000      0.000      0.000      0.000      0.203      0.000
          OF    449.500     -3.045      0.000      9.179      0.000      0.000      0.000      0.000      0.203      0.000
          OF    452.800     -2.375      0.000      9.032      0.000      0.000      0.000      0.000      0.837      0.000
          IF    456.000      2.396      0.000      9.136      0.000      0.000      0.000      0.000      0.813      0.000
          IF    459.300      2.908      0.000      9.271      0.000      0.000      0.000      0.000      0.158      0.000
          IF    462.600      3.438      0.000      9.408      0.000      0.000      0.000      0.000      0.167      0.000
          IF    465.900      4.006      0.000      9.548      0.000      0.000      0.000      0.000      0.172      0.000
          IF    469.200      4.575      0.000      9.697      0.000      0.000      0.000      0.000      0.175      0.000
          IF    472.400      5.143      0.000      9.865      0.000      0.000      0.000      0.000      0.185      0.000
          IF    475.700      5.775      0.000     10.043      0.000      0.000      0.000      0.000      0.200      0.000
          IF    479.000      6.466      0.000     10.224      0.000      0.000      0.000      0.000      0.209      0.000
          IF    482.300      7.156      0.000     10.409      0.000      0.000      0.000      0.000      0.209      0.000
          IF    485.600      7.847      0.000     10.599      0.000      0.000      0.000      0.000      0.213      0.000
          IF    488.800      8.540      0.000     10.803      0.000      0.000      0.000      0.000      0.217      0.000
          IF    492.100      9.255      0.000     11.010      0.000      0.000      0.000      0.000      0.217      0.000
          IF    495.400      9.970      0.000     11.224      0.000      0.000      0.000      0.000      0.216      0.000
          IF    501.200     11.224      0.000     11.224      0.000      0.000      0.000      0.000      0.216      0.000
          ET      0.000      0.000      0.000      0.000      0.000      0.000      0.000      0.000      0.000      0.000
1
            END        END      FETCH SURGE ELEV SURGE ELEV    INITIAL    INITIAL                BOTTOM    AVERAGE
        STATION  ELEVATION     LENGTH    10-YEAR   100-YEAR WAVE HEIGHT  W. PERIOD                SLOPE    A-ZONES
  IE      0.000    -10.979      1.000      1.000      8.987     18.659     14.102     56.140      0.007      0.000
            END        END  NEW SURGE  NEW SURGE                                                 BOTTOM    AVERAGE
        STATION  ELEVATION    10-YEAR   100-YEAR                                                  SLOPE    A-ZONES
  OF      1.000    -10.972      0.000      8.987      0.000      0.000      0.000      0.000      0.007      0.000
            END        END  NEW SURGE  NEW SURGE                                                 BOTTOM    AVERAGE
        STATION  ELEVATION    10-YEAR   100-YEAR                                                  SLOPE    A-ZONES
  OF      2.000    -10.965      0.000      8.987      0.000      0.000      0.000      0.000      0.007      0.000
            END        END  NEW SURGE  NEW SURGE                                                 BOTTOM    AVERAGE
        STATION  ELEVATION    10-YEAR   100-YEAR                                                  SLOPE    A-ZONES
  OF      3.300    -10.955      0.000      8.989      0.000      0.000      0.000      0.000      0.007      0.000
            END        END  NEW SURGE  NEW SURGE                                                 BOTTOM    AVERAGE
        STATION  ELEVATION    10-YEAR   100-YEAR                                                  SLOPE    A-ZONES
  OF      6.600    -10.932      0.000      8.991      0.000      0.000      0.000      0.000      0.007      0.000
            END        END  NEW SURGE  NEW SURGE                                                 BOTTOM    AVERAGE
        STATION  ELEVATION    10-YEAR   100-YEAR                                                  SLOPE    A-ZONES
  OF      9.800    -10.909      0.000      8.994      0.000      0.000      0.000      0.000      0.007      0.000
            END        END  NEW SURGE  NEW SURGE                                                 BOTTOM    AVERAGE
        STATION  ELEVATION    10-YEAR   100-YEAR                                                  SLOPE    A-ZONES
  OF     13.100    -10.886      0.000      8.996      0.000      0.000      0.000      0.000      0.007      0.000
            END        END  NEW SURGE  NEW SURGE                                                 BOTTOM    AVERAGE
        STATION  ELEVATION    10-YEAR   100-YEAR                                                  SLOPE    A-ZONES
  OF     16.400    -10.863      0.000      8.998      0.000      0.000      0.000      0.000      0.007      0.000
            END        END  NEW SURGE  NEW SURGE                                                 BOTTOM    AVERAGE
        STATION  ELEVATION    10-YEAR   100-YEAR                                                  SLOPE    A-ZONES
  OF     19.700    -10.841      0.000      9.001      0.000      0.000      0.000      0.000      0.005      0.000
            END        END  NEW SURGE  NEW SURGE                                                 BOTTOM    AVERAGE
        STATION  ELEVATION    10-YEAR   100-YEAR                                                  SLOPE    A-ZONES
  OF     23.000    -10.830      0.000      9.004      0.000      0.000      0.000      0.000      0.003      0.000
            END        END  NEW SURGE  NEW SURGE                                                 BOTTOM    AVERAGE
        STATION  ELEVATION    10-YEAR   100-YEAR                                                  SLOPE    A-ZONES
  OF     26.200    -10.820      0.000      9.006      0.000      0.000      0.000      0.000      0.003      0.000
            END        END  NEW SURGE  NEW SURGE                                                 BOTTOM    AVERAGE
        STATION  ELEVATION    10-YEAR   100-YEAR                                                  SLOPE    A-ZONES
  OF     29.500    -10.810      0.000      9.009      0.000      0.000      0.000      0.000      0.003      0.000
            END        END  NEW SURGE  NEW SURGE                                                 BOTTOM    AVERAGE
        STATION  ELEVATION    10-YEAR   100-YEAR                                                  SLOPE    A-ZONES
  OF     32.800    -10.800      0.000      9.012      0.000      0.000      0.000      0.000      0.003      0.000
            END        END  NEW SURGE  NEW SURGE                                                 BOTTOM    AVERAGE
        STATION  ELEVATION    10-YEAR   100-YEAR                                                  SLOPE    A-ZONES
  OF     36.100    -10.790      0.000      9.014      0.000      0.000      0.000      0.000      0.003      0.000
            END        END  NEW SURGE  NEW SURGE                                                 BOTTOM    AVERAGE
        STATION  ELEVATION    10-YEAR   100-YEAR                                                  SLOPE    A-ZONES
  OF     39.400    -10.780      0.000      9.017      0.000      0.000      0.000      0.000      0.003      0.000
            END        END  NEW SURGE  NEW SURGE                                                 BOTTOM    AVERAGE
        STATION  ELEVATION    10-YEAR   100-YEAR                                                  SLOPE    A-ZONES
  OF     42.700    -10.770      0.000      9.019      0.000      0.000      0.000      0.000      0.003      0.000
            END        END  NEW SURGE  NEW SURGE                                                 BOTTOM    AVERAGE
        STATION  ELEVATION    10-YEAR   100-YEAR                                                  SLOPE    A-ZONES
  OF     45.900    -10.760      0.000      9.022      0.000      0.000      0.000      0.000      0.003      0.000
            END        END  NEW SURGE  NEW SURGE                                                 BOTTOM    AVERAGE
        STATION  ELEVATION    10-YEAR   100-YEAR                                                  SLOPE    A-ZONES
  OF     49.200    -10.750      0.000      9.024      0.000      0.000      0.000      0.000      0.003      0.000
            END        END  NEW SURGE  NEW SURGE                                                 BOTTOM    AVERAGE
        STATION  ELEVATION    10-YEAR   100-YEAR                                                  SLOPE    A-ZONES
  OF     52.500    -10.740      0.000      9.027      0.000      0.000      0.000      0.000      0.003      0.000
            END        END  NEW SURGE  NEW SURGE                                                 BOTTOM    AVERAGE
        STATION  ELEVATION    10-YEAR   100-YEAR                                                  SLOPE    A-ZONES
  OF     55.800    -10.730      0.000      9.030      0.000      0.000      0.000      0.000      0.003      0.000
            END        END  NEW SURGE  NEW SURGE                                                 BOTTOM    AVERAGE
        STATION  ELEVATION    10-YEAR   100-YEAR                                                  SLOPE    A-ZONES
  OF     59.100    -10.720      0.000      9.032      0.000      0.000      0.000      0.000      0.003      0.000
            END        END  NEW SURGE  NEW SURGE                                                 BOTTOM    AVERAGE
        STATION  ELEVATION    10-YEAR   100-YEAR                                                  SLOPE    A-ZONES
  OF     62.300    -10.709      0.000      9.035      0.000      0.000      0.000      0.000      0.003      0.000
            END        END  NEW SURGE  NEW SURGE                                                 BOTTOM    AVERAGE
        STATION  ELEVATION    10-YEAR   100-YEAR                                                  SLOPE    A-ZONES
  OF     65.600    -10.699      0.000      9.037      0.000      0.000      0.000      0.000      0.003      0.000
            END        END  NEW SURGE  NEW SURGE                                                 BOTTOM    AVERAGE
        STATION  ELEVATION    10-YEAR   100-YEAR                                                  SLOPE    A-ZONES
  OF     68.900    -10.689      0.000      9.040      0.000      0.000      0.000      0.000      0.003      0.000
            END        END  NEW SURGE  NEW SURGE                                                 BOTTOM    AVERAGE
        STATION  ELEVATION    10-YEAR   100-YEAR                                                  SLOPE    A-ZONES
  OF     72.200    -10.679      0.000      9.042      0.000      0.000      0.000      0.000      0.003      0.000
            END        END  NEW SURGE  NEW SURGE                                                 BOTTOM    AVERAGE
        STATION  ELEVATION    10-YEAR   100-YEAR                                                  SLOPE    A-ZONES
  OF     75.500    -10.669      0.000      9.045      0.000      0.000      0.000      0.000      0.003      0.000
            END        END  NEW SURGE  NEW SURGE                                                 BOTTOM    AVERAGE
        STATION  ELEVATION    10-YEAR   100-YEAR                                                  SLOPE    A-ZONES
  OF     78.700    -10.659      0.000      9.047      0.000      0.000      0.000      0.000      0.003      0.000
            END        END  NEW SURGE  NEW SURGE                                                 BOTTOM    AVERAGE
        STATION  ELEVATION    10-YEAR   100-YEAR                                                  SLOPE    A-ZONES
  OF     82.000    -10.649      0.000      9.050      0.000      0.000      0.000      0.000      0.003      0.000
            END        END  NEW SURGE  NEW SURGE                                                 BOTTOM    AVERAGE
        STATION  ELEVATION    10-YEAR   100-YEAR                                                  SLOPE    A-ZONES
  OF     85.300    -10.639      0.000      9.052      0.000      0.000      0.000      0.000      0.003      0.000
            END        END  NEW SURGE  NEW SURGE                                                 BOTTOM    AVERAGE
        STATION  ELEVATION    10-YEAR   100-YEAR                                                  SLOPE    A-ZONES
  OF     88.600    -10.629      0.000      9.055      0.000      0.000      0.000      0.000      0.003      0.000
            END        END  NEW SURGE  NEW SURGE                                                 BOTTOM    AVERAGE
        STATION  ELEVATION    10-YEAR   100-YEAR                                                  SLOPE    A-ZONES
  OF     91.900    -10.619      0.000      9.057      0.000      0.000      0.000      0.000      0.003      0.000
            END        END  NEW SURGE  NEW SURGE                                                 BOTTOM    AVERAGE
        STATION  ELEVATION    10-YEAR   100-YEAR                                                  SLOPE    A-ZONES
  OF     95.100    -10.609      0.000      9.060      0.000      0.000      0.000      0.000      0.003      0.000
            END        END  NEW SURGE  NEW SURGE                                                 BOTTOM    AVERAGE
        STATION  ELEVATION    10-YEAR   100-YEAR                                                  SLOPE    A-ZONES
  OF     98.400    -10.599      0.000      9.063      0.000      0.000      0.000      0.000      0.003      0.000
            END        END  NEW SURGE  NEW SURGE                                                 BOTTOM    AVERAGE
        STATION  ELEVATION    10-YEAR   100-YEAR                                                  SLOPE    A-ZONES
  OF    101.700    -10.589      0.000      9.065      0.000      0.000      0.000      0.000      0.003      0.000
            END        END  NEW SURGE  NEW SURGE                                                 BOTTOM    AVERAGE
        STATION  ELEVATION    10-YEAR   100-YEAR                                                  SLOPE    A-ZONES
  OF    105.000    -10.579      0.000      9.067      0.000      0.000      0.000      0.000      0.003      0.000
            END        END  NEW SURGE  NEW SURGE                                                 BOTTOM    AVERAGE
        STATION  ELEVATION    10-YEAR   100-YEAR                                                  SLOPE    A-ZONES
  OF    108.300    -10.569      0.000      9.070      0.000      0.000      0.000      0.000      0.003      0.000
            END        END  NEW SURGE  NEW SURGE                                                 BOTTOM    AVERAGE
        STATION  ELEVATION    10-YEAR   100-YEAR                                                  SLOPE    A-ZONES
  OF    111.500    -10.559      0.000      9.072      0.000      0.000      0.000      0.000      0.003      0.000
            END        END  NEW SURGE  NEW SURGE                                                 BOTTOM    AVERAGE
        STATION  ELEVATION    10-YEAR   100-YEAR                                                  SLOPE    A-ZONES
  OF    114.800    -10.549      0.000      9.074      0.000      0.000      0.000      0.000      0.003      0.000
            END        END  NEW SURGE  NEW SURGE                                                 BOTTOM    AVERAGE
        STATION  ELEVATION    10-YEAR   100-YEAR                                                  SLOPE    A-ZONES
  OF    118.100    -10.539      0.000      9.076      0.000      0.000      0.000      0.000      0.003      0.000
            END        END  NEW SURGE  NEW SURGE                                                 BOTTOM    AVERAGE
        STATION  ELEVATION    10-YEAR   100-YEAR                                                  SLOPE    A-ZONES
  OF    121.400    -10.529      0.000      9.079      0.000      0.000      0.000      0.000      0.003      0.000
            END        END  NEW SURGE  NEW SURGE                                                 BOTTOM    AVERAGE
        STATION  ELEVATION    10-YEAR   100-YEAR                                                  SLOPE    A-ZONES
  OF    124.700    -10.519      0.000      9.080      0.000      0.000      0.000      0.000      0.003      0.000
            END        END  NEW SURGE  NEW SURGE                                                 BOTTOM    AVERAGE
        STATION  ELEVATION    10-YEAR   100-YEAR                                                  SLOPE    A-ZONES
  OF    128.000    -10.509      0.000      9.083      0.000      0.000      0.000      0.000      0.003      0.000
            END        END  NEW SURGE  NEW SURGE                                                 BOTTOM    AVERAGE
        STATION  ELEVATION    10-YEAR   100-YEAR                                                  SLOPE    A-ZONES
  OF    131.200    -10.499      0.000      9.085      0.000      0.000      0.000      0.000      0.003      0.000
            END        END  NEW SURGE  NEW SURGE                                                 BOTTOM    AVERAGE
        STATION  ELEVATION    10-YEAR   100-YEAR                                                  SLOPE    A-ZONES
  OF    134.500    -10.489      0.000      9.087      0.000      0.000      0.000      0.000      0.003      0.000
            END        END  NEW SURGE  NEW SURGE                                                 BOTTOM    AVERAGE
        STATION  ELEVATION    10-YEAR   100-YEAR                                                  SLOPE    A-ZONES
  OF    137.800    -10.479      0.000      9.089      0.000      0.000      0.000      0.000      0.003      0.000
            END        END  NEW SURGE  NEW SURGE                                                 BOTTOM    AVERAGE
        STATION  ELEVATION    10-YEAR   100-YEAR                                                  SLOPE    A-ZONES
  OF    141.100    -10.469      0.000      9.091      0.000      0.000      0.000      0.000      0.003      0.000
            END        END  NEW SURGE  NEW SURGE                                                 BOTTOM    AVERAGE
        STATION  ELEVATION    10-YEAR   100-YEAR                                                  SLOPE    A-ZONES
  OF    144.400    -10.459      0.000      9.093      0.000      0.000      0.000      0.000      0.003      0.000
            END        END  NEW SURGE  NEW SURGE                                                 BOTTOM    AVERAGE
        STATION  ELEVATION    10-YEAR   100-YEAR                                                  SLOPE    A-ZONES
  OF    147.600    -10.449      0.000      9.095      0.000      0.000      0.000      0.000      0.003      0.000
            END        END  NEW SURGE  NEW SURGE                                                 BOTTOM    AVERAGE
        STATION  ELEVATION    10-YEAR   100-YEAR                                                  SLOPE    A-ZONES
  OF    150.900    -10.439      0.000      9.098      0.000      0.000      0.000      0.000      0.003      0.000
            END        END  NEW SURGE  NEW SURGE                                                 BOTTOM    AVERAGE
        STATION  ELEVATION    10-YEAR   100-YEAR                                                  SLOPE    A-ZONES
  OF    154.200    -10.429      0.000      9.100      0.000      0.000      0.000      0.000      0.003      0.000
            END        END  NEW SURGE  NEW SURGE                                                 BOTTOM    AVERAGE
        STATION  ELEVATION    10-YEAR   100-YEAR                                                  SLOPE    A-ZONES
  OF    157.500    -10.419      0.000      9.102      0.000      0.000      0.000      0.000      0.003      0.000
            END        END  NEW SURGE  NEW SURGE                                                 BOTTOM    AVERAGE
        STATION  ELEVATION    10-YEAR   100-YEAR                                                  SLOPE    A-ZONES
  OF    160.800    -10.409      0.000      9.105      0.000      0.000      0.000      0.000      0.003      0.000
            END        END  NEW SURGE  NEW SURGE                                                 BOTTOM    AVERAGE
        STATION  ELEVATION    10-YEAR   100-YEAR                                                  SLOPE    A-ZONES
  OF    164.000    -10.399      0.000      9.107      0.000      0.000      0.000      0.000      0.003      0.000
            END        END  NEW SURGE  NEW SURGE                                                 BOTTOM    AVERAGE
        STATION  ELEVATION    10-YEAR   100-YEAR                                                  SLOPE    A-ZONES
  OF    167.300    -10.389      0.000      9.109      0.000      0.000      0.000      0.000      0.003      0.000
            END        END  NEW SURGE  NEW SURGE                                                 BOTTOM    AVERAGE
        STATION  ELEVATION    10-YEAR   100-YEAR                                                  SLOPE    A-ZONES
  OF    170.600    -10.379      0.000      9.111      0.000      0.000      0.000      0.000      0.003      0.000
            END        END  NEW SURGE  NEW SURGE                                                 BOTTOM    AVERAGE
        STATION  ELEVATION    10-YEAR   100-YEAR                                                  SLOPE    A-ZONES
  OF    173.900    -10.369      0.000      9.113      0.000      0.000      0.000      0.000      0.003      0.000
            END        END  NEW SURGE  NEW SURGE                                                 BOTTOM    AVERAGE
        STATION  ELEVATION    10-YEAR   100-YEAR                                                  SLOPE    A-ZONES
  OF    177.200    -10.358      0.000      9.115      0.000      0.000      0.000      0.000      0.003      0.000
            END        END  NEW SURGE  NEW SURGE                                                 BOTTOM    AVERAGE
        STATION  ELEVATION    10-YEAR   100-YEAR                                                  SLOPE    A-ZONES
  OF    180.400    -10.348      0.000      9.117      0.000      0.000      0.000      0.000      0.003      0.000
            END        END  NEW SURGE  NEW SURGE                                                 BOTTOM    AVERAGE
        STATION  ELEVATION    10-YEAR   100-YEAR                                                  SLOPE    A-ZONES
  OF    183.700    -10.338      0.000      9.119      0.000      0.000      0.000      0.000      0.003      0.000
            END        END  NEW SURGE  NEW SURGE                                                 BOTTOM    AVERAGE
        STATION  ELEVATION    10-YEAR   100-YEAR                                                  SLOPE    A-ZONES
  OF    187.000    -10.328      0.000      9.121      0.000      0.000      0.000      0.000      0.003      0.000
            END        END  NEW SURGE  NEW SURGE                                                 BOTTOM    AVERAGE
        STATION  ELEVATION    10-YEAR   100-YEAR                                                  SLOPE    A-ZONES
  OF    190.300    -10.318      0.000      9.123      0.000      0.000      0.000      0.000      0.003      0.000
            END        END  NEW SURGE  NEW SURGE                                                 BOTTOM    AVERAGE
        STATION  ELEVATION    10-YEAR   100-YEAR                                                  SLOPE    A-ZONES
  OF    193.600    -10.308      0.000      9.125      0.000      0.000      0.000      0.000      0.003      0.000
            END        END  NEW SURGE  NEW SURGE                                                 BOTTOM    AVERAGE
        STATION  ELEVATION    10-YEAR   100-YEAR                                                  SLOPE    A-ZONES
  OF    196.800    -10.298      0.000      9.126      0.000      0.000      0.000      0.000      0.003      0.000
            END        END  NEW SURGE  NEW SURGE                                                 BOTTOM    AVERAGE
        STATION  ELEVATION    10-YEAR   100-YEAR                                                  SLOPE    A-ZONES
  OF    200.100    -10.288      0.000      9.128      0.000      0.000      0.000      0.000      0.003      0.000
            END        END  NEW SURGE  NEW SURGE                                                 BOTTOM    AVERAGE
        STATION  ELEVATION    10-YEAR   100-YEAR                                                  SLOPE    A-ZONES
  OF    203.400    -10.278      0.000      9.130      0.000      0.000      0.000      0.000      0.003      0.000
            END        END  NEW SURGE  NEW SURGE                                                 BOTTOM    AVERAGE
        STATION  ELEVATION    10-YEAR   100-YEAR                                                  SLOPE    A-ZONES
  OF    206.700    -10.268      0.000      9.131      0.000      0.000      0.000      0.000      0.003      0.000
            END        END  NEW SURGE  NEW SURGE                                                 BOTTOM    AVERAGE
        STATION  ELEVATION    10-YEAR   100-YEAR                                                  SLOPE    A-ZONES
  OF    210.000    -10.258      0.000      9.133      0.000      0.000      0.000      0.000      0.003      0.000
            END        END  NEW SURGE  NEW SURGE                                                 BOTTOM    AVERAGE
        STATION  ELEVATION    10-YEAR   100-YEAR                                                  SLOPE    A-ZONES
  OF    213.300    -10.248      0.000      9.135      0.000      0.000      0.000      0.000      0.003      0.000
            END        END  NEW SURGE  NEW SURGE                                                 BOTTOM    AVERAGE
        STATION  ELEVATION    10-YEAR   100-YEAR                                                  SLOPE    A-ZONES
  OF    216.500    -10.238      0.000      9.136      0.000      0.000      0.000      0.000      0.003      0.000
            END        END  NEW SURGE  NEW SURGE                                                 BOTTOM    AVERAGE
        STATION  ELEVATION    10-YEAR   100-YEAR                                                  SLOPE    A-ZONES
  OF    219.800    -10.228      0.000      9.138      0.000      0.000      0.000      0.000      0.003      0.000
            END        END  NEW SURGE  NEW SURGE                                                 BOTTOM    AVERAGE
        STATION  ELEVATION    10-YEAR   100-YEAR                                                  SLOPE    A-ZONES
  OF    223.100    -10.218      0.000      9.139      0.000      0.000      0.000      0.000      0.004      0.000
            END        END  NEW SURGE  NEW SURGE                                                 BOTTOM    AVERAGE
        STATION  ELEVATION    10-YEAR   100-YEAR                                                  SLOPE    A-ZONES
  OF    226.400    -10.198      0.000      9.141      0.000      0.000      0.000      0.000      0.007      0.000
            END        END  NEW SURGE  NEW SURGE                                                 BOTTOM    AVERAGE
        STATION  ELEVATION    10-YEAR   100-YEAR                                                  SLOPE    A-ZONES
  OF    229.700    -10.171      0.000      9.142      0.000      0.000      0.000      0.000      0.009      0.000
            END        END  NEW SURGE  NEW SURGE                                                 BOTTOM    AVERAGE
        STATION  ELEVATION    10-YEAR   100-YEAR                                                  SLOPE    A-ZONES
  OF    232.900    -10.143      0.000      9.144      0.000      0.000      0.000      0.000      0.009      0.000
            END        END  NEW SURGE  NEW SURGE                                                 BOTTOM    AVERAGE
        STATION  ELEVATION    10-YEAR   100-YEAR                                                  SLOPE    A-ZONES
  OF    236.200    -10.116      0.000      9.145      0.000      0.000      0.000      0.000      0.008      0.000
            END        END  NEW SURGE  NEW SURGE                                                 BOTTOM    AVERAGE
        STATION  ELEVATION    10-YEAR   100-YEAR                                                  SLOPE    A-ZONES
  OF    239.500    -10.088      0.000      9.146      0.000      0.000      0.000      0.000      0.009      0.000
            END        END  NEW SURGE  NEW SURGE                                                 BOTTOM    AVERAGE
        STATION  ELEVATION    10-YEAR   100-YEAR                                                  SLOPE    A-ZONES
  OF    242.800    -10.060      0.000      9.148      0.000      0.000      0.000      0.000      0.008      0.000
            END        END  NEW SURGE  NEW SURGE                                                 BOTTOM    AVERAGE
        STATION  ELEVATION    10-YEAR   100-YEAR                                                  SLOPE    A-ZONES
  OF    246.100    -10.033      0.000      9.149      0.000      0.000      0.000      0.000      0.009      0.000
            END        END  NEW SURGE  NEW SURGE                                                 BOTTOM    AVERAGE
        STATION  ELEVATION    10-YEAR   100-YEAR                                                  SLOPE    A-ZONES
  OF    249.300    -10.005      0.000      9.151      0.000      0.000      0.000      0.000      0.008      0.000
            END        END  NEW SURGE  NEW SURGE                                                 BOTTOM    AVERAGE
        STATION  ELEVATION    10-YEAR   100-YEAR                                                  SLOPE    A-ZONES
  OF    252.600     -9.978      0.000      9.152      0.000      0.000      0.000      0.000      0.008      0.000
            END        END  NEW SURGE  NEW SURGE                                                 BOTTOM    AVERAGE
        STATION  ELEVATION    10-YEAR   100-YEAR                                                  SLOPE    A-ZONES
  OF    255.900     -9.951      0.000      9.154      0.000      0.000      0.000      0.000      0.008      0.000
            END        END  NEW SURGE  NEW SURGE                                                 BOTTOM    AVERAGE
        STATION  ELEVATION    10-YEAR   100-YEAR                                                  SLOPE    A-ZONES
  OF    259.200     -9.923      0.000      9.155      0.000      0.000      0.000      0.000      0.008      0.000
            END        END  NEW SURGE  NEW SURGE                                                 BOTTOM    AVERAGE
        STATION  ELEVATION    10-YEAR   100-YEAR                                                  SLOPE    A-ZONES
  OF    262.500     -9.896      0.000      9.157      0.000      0.000      0.000      0.000      0.009      0.000
            END        END  NEW SURGE  NEW SURGE                                                 BOTTOM    AVERAGE
        STATION  ELEVATION    10-YEAR   100-YEAR                                                  SLOPE    A-ZONES
  OF    265.700     -9.868      0.000      9.158      0.000      0.000      0.000      0.000      0.009      0.000
            END        END  NEW SURGE  NEW SURGE                                                 BOTTOM    AVERAGE
        STATION  ELEVATION    10-YEAR   100-YEAR                                                  SLOPE    A-ZONES
  OF    269.000     -9.840      0.000      9.159      0.000      0.000      0.000      0.000      0.008      0.000
            END        END  NEW SURGE  NEW SURGE                                                 BOTTOM    AVERAGE
        STATION  ELEVATION    10-YEAR   100-YEAR                                                  SLOPE    A-ZONES
  OF    272.300     -9.813      0.000      9.161      0.000      0.000      0.000      0.000      0.008      0.000
            END        END  NEW SURGE  NEW SURGE                                                 BOTTOM    AVERAGE
        STATION  ELEVATION    10-YEAR   100-YEAR                                                  SLOPE    A-ZONES
  OF    275.600     -9.785      0.000      9.162      0.000      0.000      0.000      0.000      0.008      0.000
            END        END  NEW SURGE  NEW SURGE                                                 BOTTOM    AVERAGE
        STATION  ELEVATION    10-YEAR   100-YEAR                                                  SLOPE    A-ZONES
  OF    278.900     -9.758      0.000      9.163      0.000      0.000      0.000      0.000      0.008      0.000
            END        END  NEW SURGE  NEW SURGE                                                 BOTTOM    AVERAGE
        STATION  ELEVATION    10-YEAR   100-YEAR                                                  SLOPE    A-ZONES
  OF    282.200     -9.730      0.000      9.165      0.000      0.000      0.000      0.000      0.009      0.000
            END        END  NEW SURGE  NEW SURGE                                                 BOTTOM    AVERAGE
        STATION  ELEVATION    10-YEAR   100-YEAR                                                  SLOPE    A-ZONES
  OF    285.400     -9.703      0.000      9.167      0.000      0.000      0.000      0.000      0.009      0.000
            END        END  NEW SURGE  NEW SURGE                                                 BOTTOM    AVERAGE
        STATION  ELEVATION    10-YEAR   100-YEAR                                                  SLOPE    A-ZONES
  OF    288.700     -9.675      0.000      9.168      0.000      0.000      0.000      0.000      0.008      0.000
            END        END  NEW SURGE  NEW SURGE                                                 BOTTOM    AVERAGE
        STATION  ELEVATION    10-YEAR   100-YEAR                                                  SLOPE    A-ZONES
  OF    292.000     -9.648      0.000      9.169      0.000      0.000      0.000      0.000      0.008      0.000
            END        END  NEW SURGE  NEW SURGE                                                 BOTTOM    AVERAGE
        STATION  ELEVATION    10-YEAR   100-YEAR                                                  SLOPE    A-ZONES
  OF    295.300     -9.620      0.000      9.170      0.000      0.000      0.000      0.000      0.008      0.000
            END        END  NEW SURGE  NEW SURGE                                                 BOTTOM    AVERAGE
        STATION  ELEVATION    10-YEAR   100-YEAR                                                  SLOPE    A-ZONES
  OF    298.600     -9.592      0.000      9.172      0.000      0.000      0.000      0.000      0.009      0.000
            END        END  NEW SURGE  NEW SURGE                                                 BOTTOM    AVERAGE
        STATION  ELEVATION    10-YEAR   100-YEAR                                                  SLOPE    A-ZONES
  OF    301.800     -9.565      0.000      9.173      0.000      0.000      0.000      0.000      0.009      0.000
            END        END  NEW SURGE  NEW SURGE                                                 BOTTOM    AVERAGE
        STATION  ELEVATION    10-YEAR   100-YEAR                                                  SLOPE    A-ZONES
  OF    305.100     -9.537      0.000      9.175      0.000      0.000      0.000      0.000      0.008      0.000
            END        END  NEW SURGE  NEW SURGE                                                 BOTTOM    AVERAGE
        STATION  ELEVATION    10-YEAR   100-YEAR                                                  SLOPE    A-ZONES
  OF    308.400     -9.510      0.000      9.176      0.000      0.000      0.000      0.000      0.008      0.000
            END        END  NEW SURGE  NEW SURGE                                                 BOTTOM    AVERAGE
        STATION  ELEVATION    10-YEAR   100-YEAR                                                  SLOPE    A-ZONES
  OF    311.700     -9.482      0.000      9.177      0.000      0.000      0.000      0.000      0.008      0.000
            END        END  NEW SURGE  NEW SURGE                                                 BOTTOM    AVERAGE
        STATION  ELEVATION    10-YEAR   100-YEAR                                                  SLOPE    A-ZONES
  OF    315.000     -9.454      0.000      9.178      0.000      0.000      0.000      0.000      0.009      0.000
            END        END  NEW SURGE  NEW SURGE                                                 BOTTOM    AVERAGE
        STATION  ELEVATION    10-YEAR   100-YEAR                                                  SLOPE    A-ZONES
  OF    318.200     -9.420      0.000      9.179      0.000      0.000      0.000      0.000      0.010      0.000
            END        END  NEW SURGE  NEW SURGE                                                 BOTTOM    AVERAGE
        STATION  ELEVATION    10-YEAR   100-YEAR                                                  SLOPE    A-ZONES
  OF    321.500     -9.386      0.000      9.181      0.000      0.000      0.000      0.000      0.010      0.000
            END        END  NEW SURGE  NEW SURGE                                                 BOTTOM    AVERAGE
        STATION  ELEVATION    10-YEAR   100-YEAR                                                  SLOPE    A-ZONES
  OF    324.800     -9.352      0.000      9.182      0.000      0.000      0.000      0.000      0.010      0.000
            END        END  NEW SURGE  NEW SURGE                                                 BOTTOM    AVERAGE
        STATION  ELEVATION    10-YEAR   100-YEAR                                                  SLOPE    A-ZONES
  OF    328.100     -9.318      0.000      9.183      0.000      0.000      0.000      0.000      0.010      0.000
            END        END  NEW SURGE  NEW SURGE                                                 BOTTOM    AVERAGE
        STATION  ELEVATION    10-YEAR   100-YEAR                                                  SLOPE    A-ZONES
  OF    331.400     -9.284      0.000      9.184      0.000      0.000      0.000      0.000      0.010      0.000
            END        END  NEW SURGE  NEW SURGE                                                 BOTTOM    AVERAGE
        STATION  ELEVATION    10-YEAR   100-YEAR                                                  SLOPE    A-ZONES
  OF    334.600     -9.250      0.000      9.185      0.000      0.000      0.000      0.000      0.010      0.000
            END        END  NEW SURGE  NEW SURGE                                                 BOTTOM    AVERAGE
        STATION  ELEVATION    10-YEAR   100-YEAR                                                  SLOPE    A-ZONES
  OF    337.900     -9.216      0.000      9.186      0.000      0.000      0.000      0.000      0.010      0.000
            END        END  NEW SURGE  NEW SURGE                                                 BOTTOM    AVERAGE
        STATION  ELEVATION    10-YEAR   100-YEAR                                                  SLOPE    A-ZONES
  OF    341.200     -9.182      0.000      9.187      0.000      0.000      0.000      0.000      0.010      0.000
            END        END  NEW SURGE  NEW SURGE                                                 BOTTOM    AVERAGE
        STATION  ELEVATION    10-YEAR   100-YEAR                                                  SLOPE    A-ZONES
  OF    344.500     -9.148      0.000      9.189      0.000      0.000      0.000      0.000      0.010      0.000
            END        END  NEW SURGE  NEW SURGE                                                 BOTTOM    AVERAGE
        STATION  ELEVATION    10-YEAR   100-YEAR                                                  SLOPE    A-ZONES
  OF    347.800     -9.114      0.000      9.189      0.000      0.000      0.000      0.000      0.010      0.000
            END        END  NEW SURGE  NEW SURGE                                                 BOTTOM    AVERAGE
        STATION  ELEVATION    10-YEAR   100-YEAR                                                  SLOPE    A-ZONES
  OF    351.000     -9.080      0.000      9.191      0.000      0.000      0.000      0.000      0.010      0.000
            END        END  NEW SURGE  NEW SURGE                                                 BOTTOM    AVERAGE
        STATION  ELEVATION    10-YEAR   100-YEAR                                                  SLOPE    A-ZONES
  OF    354.300     -9.046      0.000      9.192      0.000      0.000      0.000      0.000      0.010      0.000
            END        END  NEW SURGE  NEW SURGE                                                 BOTTOM    AVERAGE
        STATION  ELEVATION    10-YEAR   100-YEAR                                                  SLOPE    A-ZONES
  OF    357.600     -9.012      0.000      9.193      0.000      0.000      0.000      0.000      0.010      0.000
            END        END  NEW SURGE  NEW SURGE                                                 BOTTOM    AVERAGE
        STATION  ELEVATION    10-YEAR   100-YEAR                                                  SLOPE    A-ZONES
  OF    360.900     -8.978      0.000      9.194      0.000      0.000      0.000      0.000      0.010      0.000
            END        END  NEW SURGE  NEW SURGE                                                 BOTTOM    AVERAGE
        STATION  ELEVATION    10-YEAR   100-YEAR                                                  SLOPE    A-ZONES
  OF    364.200     -8.944      0.000      9.195      0.000      0.000      0.000      0.000      0.010      0.000
            END        END  NEW SURGE  NEW SURGE                                                 BOTTOM    AVERAGE
        STATION  ELEVATION    10-YEAR   100-YEAR                                                  SLOPE    A-ZONES
  OF    367.500     -8.910      0.000      9.196      0.000      0.000      0.000      0.000      0.010      0.000
            END        END  NEW SURGE  NEW SURGE                                                 BOTTOM    AVERAGE
        STATION  ELEVATION    10-YEAR   100-YEAR                                                  SLOPE    A-ZONES
  OF    370.700     -8.876      0.000      9.197      0.000      0.000      0.000      0.000      0.010      0.000
            END        END  NEW SURGE  NEW SURGE                                                 BOTTOM    AVERAGE
        STATION  ELEVATION    10-YEAR   100-YEAR                                                  SLOPE    A-ZONES
  OF    374.000     -8.842      0.000      9.199      0.000      0.000      0.000      0.000      0.010      0.000
            END        END  NEW SURGE  NEW SURGE                                                 BOTTOM    AVERAGE
        STATION  ELEVATION    10-YEAR   100-YEAR                                                  SLOPE    A-ZONES
  OF    377.300     -8.808      0.000      9.200      0.000      0.000      0.000      0.000      0.010      0.000
            END        END  NEW SURGE  NEW SURGE                                                 BOTTOM    AVERAGE
        STATION  ELEVATION    10-YEAR   100-YEAR                                                  SLOPE    A-ZONES
  OF    380.600     -8.774      0.000      9.201      0.000      0.000      0.000      0.000      0.010      0.000
            END        END  NEW SURGE  NEW SURGE                                                 BOTTOM    AVERAGE
        STATION  ELEVATION    10-YEAR   100-YEAR                                                  SLOPE    A-ZONES
  OF    383.900     -8.740      0.000      9.202      0.000      0.000      0.000      0.000      0.010      0.000
            END        END  NEW SURGE  NEW SURGE                                                 BOTTOM    AVERAGE
        STATION  ELEVATION    10-YEAR   100-YEAR                                                  SLOPE    A-ZONES
  OF    387.100     -8.706      0.000      9.203      0.000      0.000      0.000      0.000      0.010      0.000
            END        END  NEW SURGE  NEW SURGE                                                 BOTTOM    AVERAGE
        STATION  ELEVATION    10-YEAR   100-YEAR                                                  SLOPE    A-ZONES
  OF    390.400     -8.672      0.000      9.204      0.000      0.000      0.000      0.000      0.010      0.000
            END        END  NEW SURGE  NEW SURGE                                                 BOTTOM    AVERAGE
        STATION  ELEVATION    10-YEAR   100-YEAR                                                  SLOPE    A-ZONES
  OF    393.700     -8.639      0.000      9.205      0.000      0.000      0.000      0.000      0.010      0.000
            END        END  NEW SURGE  NEW SURGE                                                 BOTTOM    AVERAGE
        STATION  ELEVATION    10-YEAR   100-YEAR                                                  SLOPE    A-ZONES
  OF    397.000     -8.604      0.000      9.207      0.000      0.000      0.000      0.000      0.010      0.000
            END        END  NEW SURGE  NEW SURGE                                                 BOTTOM    AVERAGE
        STATION  ELEVATION    10-YEAR   100-YEAR                                                  SLOPE    A-ZONES
  OF    400.300     -8.571      0.000      9.208      0.000      0.000      0.000      0.000      0.010      0.000
            END        END  NEW SURGE  NEW SURGE                                                 BOTTOM    AVERAGE
        STATION  ELEVATION    10-YEAR   100-YEAR                                                  SLOPE    A-ZONES
  OF    403.500     -8.536      0.000      9.209      0.000      0.000      0.000      0.000      0.010      0.000
            END        END  NEW SURGE  NEW SURGE                                                 BOTTOM    AVERAGE
        STATION  ELEVATION    10-YEAR   100-YEAR                                                  SLOPE    A-ZONES
  OF    406.800     -8.502      0.000      9.210      0.000      0.000      0.000      0.000      0.010      0.000
            END        END  NEW SURGE  NEW SURGE                                                 BOTTOM    AVERAGE
        STATION  ELEVATION    10-YEAR   100-YEAR                                                  SLOPE    A-ZONES
  OF    410.100     -8.469      0.000      9.211      0.000      0.000      0.000      0.000      0.010      0.000
            END        END  NEW SURGE  NEW SURGE                                                 BOTTOM    AVERAGE
        STATION  ELEVATION    10-YEAR   100-YEAR                                                  SLOPE    A-ZONES
  OF    413.400     -8.434      0.000      9.212      0.000      0.000      0.000      0.000      0.010      0.000
            END        END  NEW SURGE  NEW SURGE                                                 BOTTOM    AVERAGE
        STATION  ELEVATION    10-YEAR   100-YEAR                                                  SLOPE    A-ZONES
  OF    416.700     -8.401      0.000      9.214      0.000      0.000      0.000      0.000      0.010      0.000
            END        END  NEW SURGE  NEW SURGE                                                 BOTTOM    AVERAGE
        STATION  ELEVATION    10-YEAR   100-YEAR                                                  SLOPE    A-ZONES
  OF    419.900     -8.366      0.000      9.214      0.000      0.000      0.000      0.000      0.013      0.000
            END        END  NEW SURGE  NEW SURGE                                                 BOTTOM    AVERAGE
        STATION  ELEVATION    10-YEAR   100-YEAR                                                  SLOPE    A-ZONES
  OF    423.200     -8.315      0.000      9.210      0.000      0.000      0.000      0.000      0.096      0.000
            END        END  NEW SURGE  NEW SURGE                                                 BOTTOM    AVERAGE
        STATION  ELEVATION    10-YEAR   100-YEAR                                                  SLOPE    A-ZONES
  OF    426.500     -7.735      0.000      9.205      0.000      0.000      0.000      0.000      0.189      0.000
            END        END  NEW SURGE  NEW SURGE                                                 BOTTOM    AVERAGE
        STATION  ELEVATION    10-YEAR   100-YEAR                                                  SLOPE    A-ZONES
  OF    429.800     -7.065      0.000      9.201      0.000      0.000      0.000      0.000      0.203      0.000
            END        END  NEW SURGE  NEW SURGE                                                 BOTTOM    AVERAGE
        STATION  ELEVATION    10-YEAR   100-YEAR                                                  SLOPE    A-ZONES
  OF    433.100     -6.395      0.000      9.196      0.000      0.000      0.000      0.000      0.203      0.000
            END        END  NEW SURGE  NEW SURGE                                                 BOTTOM    AVERAGE
        STATION  ELEVATION    10-YEAR   100-YEAR                                                  SLOPE    A-ZONES
  OF    436.400     -5.725      0.000      9.193      0.000      0.000      0.000      0.000      0.206      0.000
            END        END  NEW SURGE  NEW SURGE                                                 BOTTOM    AVERAGE
        STATION  ELEVATION    10-YEAR   100-YEAR                                                  SLOPE    A-ZONES
  OF    439.600     -5.055      0.000      9.189      0.000      0.000      0.000      0.000      0.206      0.000
            END        END  NEW SURGE  NEW SURGE                                                 BOTTOM    AVERAGE
        STATION  ELEVATION    10-YEAR   100-YEAR                                                  SLOPE    A-ZONES
  OF    442.900     -4.385      0.000      9.186      0.000      0.000      0.000      0.000      0.203      0.000
            END        END  NEW SURGE  NEW SURGE                                                 BOTTOM    AVERAGE
        STATION  ELEVATION    10-YEAR   100-YEAR                                                  SLOPE    A-ZONES
  OF    446.200     -3.715      0.000      9.182      0.000      0.000      0.000      0.000      0.203      0.000
            END        END  NEW SURGE  NEW SURGE                                                 BOTTOM    AVERAGE
        STATION  ELEVATION    10-YEAR   100-YEAR                                                  SLOPE    A-ZONES
  OF    449.500     -3.045      0.000      9.179      0.000      0.000      0.000      0.000      0.203      0.000
            END        END  NEW SURGE  NEW SURGE                                                 BOTTOM    AVERAGE
        STATION  ELEVATION    10-YEAR   100-YEAR                                                  SLOPE    A-ZONES
  OF    452.800     -2.375      0.000      9.032      0.000      0.000      0.000      0.000      0.837      0.000
            END        END  NEW SURGE  NEW SURGE                                                 BOTTOM    AVERAGE
        STATION  ELEVATION    10-YEAR   100-YEAR                                                  SLOPE    A-ZONES
  IF    456.000      2.396      0.000      9.136      0.000      0.000      0.000      0.000      0.813      0.000
            END        END  NEW SURGE  NEW SURGE                                                 BOTTOM    AVERAGE
        STATION  ELEVATION    10-YEAR   100-YEAR                                                  SLOPE    A-ZONES
  IF    459.300      2.908      0.000      9.271      0.000      0.000      0.000      0.000      0.158      0.000
            END        END  NEW SURGE  NEW SURGE                                                 BOTTOM    AVERAGE
        STATION  ELEVATION    10-YEAR   100-YEAR                                                  SLOPE    A-ZONES
  IF    462.600      3.438      0.000      9.408      0.000      0.000      0.000      0.000      0.167      0.000
            END        END  NEW SURGE  NEW SURGE                                                 BOTTOM    AVERAGE
        STATION  ELEVATION    10-YEAR   100-YEAR                                                  SLOPE    A-ZONES
  IF    465.900      4.006      0.000      9.548      0.000      0.000      0.000      0.000      0.172      0.000
            END        END  NEW SURGE  NEW SURGE                                                 BOTTOM    AVERAGE
        STATION  ELEVATION    10-YEAR   100-YEAR                                                  SLOPE    A-ZONES
  IF    469.200      4.575      0.000      9.697      0.000      0.000      0.000      0.000      0.175      0.000
            END        END  NEW SURGE  NEW SURGE                                                 BOTTOM    AVERAGE
        STATION  ELEVATION    10-YEAR   100-YEAR                                                  SLOPE    A-ZONES
  IF    472.400      5.143      0.000      9.865      0.000      0.000      0.000      0.000      0.185      0.000
            END        END  NEW SURGE  NEW SURGE                                                 BOTTOM    AVERAGE
        STATION  ELEVATION    10-YEAR   100-YEAR                                                  SLOPE    A-ZONES
  IF    475.700      5.775      0.000     10.043      0.000      0.000      0.000      0.000      0.200      0.000
            END        END  NEW SURGE  NEW SURGE                                                 BOTTOM    AVERAGE
        STATION  ELEVATION    10-YEAR   100-YEAR                                                  SLOPE    A-ZONES
  IF    479.000      6.466      0.000     10.224      0.000      0.000      0.000      0.000      0.209      0.000
            END        END  NEW SURGE  NEW SURGE                                                 BOTTOM    AVERAGE
        STATION  ELEVATION    10-YEAR   100-YEAR                                                  SLOPE    A-ZONES
  IF    482.300      7.156      0.000     10.409      0.000      0.000      0.000      0.000      0.209      0.000
            END        END  NEW SURGE  NEW SURGE                                                 BOTTOM    AVERAGE
        STATION  ELEVATION    10-YEAR   100-YEAR                                                  SLOPE    A-ZONES
  IF    485.600      7.847      0.000     10.599      0.000      0.000      0.000      0.000      0.213      0.000
            END        END  NEW SURGE  NEW SURGE                                                 BOTTOM    AVERAGE
        STATION  ELEVATION    10-YEAR   100-YEAR                                                  SLOPE    A-ZONES
  IF    488.800      8.540      0.000     10.803      0.000      0.000      0.000      0.000      0.217      0.000
            END        END  NEW SURGE  NEW SURGE                                                 BOTTOM    AVERAGE
        STATION  ELEVATION    10-YEAR   100-YEAR                                                  SLOPE    A-ZONES
  IF    492.100      9.255      0.000     11.010      0.000      0.000      0.000      0.000      0.217      0.000
            END        END  NEW SURGE  NEW SURGE                                                 BOTTOM    AVERAGE
        STATION  ELEVATION    10-YEAR   100-YEAR                                                  SLOPE    A-ZONES
  IF    495.400      9.970      0.000     11.224      0.000      0.000      0.000      0.000      0.216      0.000
            END        END  NEW SURGE  NEW SURGE                                                 BOTTOM    AVERAGE
        STATION  ELEVATION    10-YEAR   100-YEAR                                                  SLOPE    A-ZONES
  IF    501.200     11.224      0.000     11.224      0.000      0.000      0.000      0.000      0.216      0.000
  ------------------------------------------------END OF TRANSECT-------------------------------------------------
  NOTE:
  SURGE ELEVATION INCLUDES CONTRIBUTIONS FROM ASTRONOMICAL AND STORM TIDES.
1
                                                PART2: CONTROLLING WAVE HEIGHTS, SPECTRAL 
                                                       PEAK WAVE PERIOD, AND WAVE CREST ELEVATIONS
                                          LOCATION        CONTROLLING  SPECTRAL PEAK   WAVE CREST
                                                          WAVE HEIGHT  WAVE PERIOD     ELEVATION 
                                        IE       0.00        15.11        14.10        19.56
                                        OF       1.00        15.10        14.10        19.56
                                        OF       2.00        15.10        14.10        19.55
                                        OF       3.30        15.09        14.10        19.55
                                        OF       6.60        15.07        14.10        19.54
                                        OF       9.80        15.06        14.10        19.54
                                        OF      13.10        15.04        14.10        19.53
                                        OF      16.40        15.03        14.10        19.52
                                        OF      19.70        15.01        14.10        19.51
                                        OF      23.00        15.01        14.10        19.51
                                        OF      26.20        15.00        14.10        19.51
                                        OF      29.50        15.00        14.10        19.51
                                        OF      32.80        14.99        14.10        19.51
                                        OF      36.10        14.99        14.10        19.50
                                        OF      39.40        14.98        14.10        19.50
                                        OF      42.70        14.98        14.10        19.50
                                        OF      45.90        14.97        14.10        19.50
                                        OF      49.20        14.97        14.10        19.50
                                        OF      52.50        14.96        14.10        19.50
                                        OF      55.80        14.95        14.10        19.50
                                        OF      59.10        14.95        14.10        19.50
                                        OF      62.30        14.94        14.10        19.50
                                        OF      65.60        14.94        14.10        19.49
                                        OF      68.90        14.93        14.10        19.49
                                        OF      72.20        14.93        14.10        19.49
                                        OF      75.50        14.92        14.10        19.49
                                        OF      78.70        14.92        14.10        19.49
                                        OF      82.00        14.91        14.10        19.49
                                        OF      85.30        14.90        14.10        19.48
                                        OF      88.60        14.90        14.10        19.48
                                        OF      91.90        14.89        14.10        19.48
                                        OF      95.10        14.89        14.10        19.48
                                        OF      98.40        14.88        14.10        19.48
                                        OF     101.70        14.88        14.10        19.48
                                        OF     105.00        14.87        14.10        19.48
                                        OF     108.30        14.87        14.10        19.48
                                        OF     111.50        14.86        14.10        19.47
                                        OF     114.80        14.85        14.10        19.47
                                        OF     118.10        14.85        14.10        19.47
                                        OF     121.40        14.84        14.10        19.47
                                        OF     124.70        14.84        14.10        19.47
                                        OF     128.00        14.83        14.10        19.46
                                        OF     131.20        14.83        14.10        19.46
                                        OF     134.50        14.82        14.10        19.46
                                        OF     137.80        14.81        14.10        19.46
                                        OF     141.10        14.81        14.10        19.46
                                        OF     144.40        14.80        14.10        19.45
                                        OF     147.60        14.80        14.10        19.45
                                        OF     150.90        14.79        14.10        19.45
                                        OF     154.20        14.79        14.10        19.45
                                        OF     157.50        14.78        14.10        19.45
                                        OF     160.80        14.77        14.10        19.45
                                        OF     164.00        14.77        14.10        19.44
                                        OF     167.30        14.76        14.10        19.44
                                        OF     170.60        14.76        14.10        19.44
                                        OF     173.90        14.75        14.10        19.44
                                        OF     177.20        14.74        14.10        19.44
                                        OF     180.40        14.74        14.10        19.43
                                        OF     183.70        14.73        14.10        19.43
                                        OF     187.00        14.73        14.10        19.43
                                        OF     190.30        14.72        14.10        19.43
                                        OF     193.60        14.71        14.10        19.43
                                        OF     196.80        14.71        14.10        19.42
[...]
                                             128.00          19.46
                                                                          V23  EL=19     130
                                             131.20          19.46
                                                                          V23  EL=19     130
                                             134.50          19.46
                                                                          V23  EL=19     130
                                             137.80          19.46
                                                                          V23  EL=19     130
                                             141.10          19.46
                                                                          V23  EL=19     130
                                             144.40          19.45
                                                                          V23  EL=19     130
                                             147.60          19.45
                                                                          V23  EL=19     130
                                             150.90          19.45
                                                                          V23  EL=19     130
                                             154.20          19.45
                                                                          V23  EL=19     130
                                             157.50          19.45
                                                                          V23  EL=19     130
                                             160.80          19.45
                                                                          V23  EL=19     130
                                             164.00          19.44
                                                                          V23  EL=19     130
                                             167.30          19.44
                                                                          V23  EL=19     130
                                             170.60          19.44
                                                                          V23  EL=19     130
                                             173.90          19.44
                                                                          V23  EL=19     130
                                             177.20          19.44
                                                                          V23  EL=19     130
                                             180.40          19.43
                                                                          V23  EL=19     130
                                             183.70          19.43
                                                                          V23  EL=19     130
                                             187.00          19.43
                                                                          V23  EL=19     130
                                             190.30          19.43
                                                                          V23  EL=19     130
                                             193.60          19.43
                                                                          V23  EL=19     130
                                             196.80          19.42
                                                                          V23  EL=19     130
                                             200.10          19.42
                                                                          V23  EL=19     130
                                             203.40          19.42
                                                                          V23  EL=19     130
                                             206.70          19.41
                                                                          V23  EL=19     130
                                             210.00          19.41
                                                                          V23  EL=19     130
                                             213.30          19.41
                                                                          V23  EL=19     130
                                             216.50          19.41
                                                                          V23  EL=19     130
                                             219.80          19.40
                                                                          V23  EL=19     130
                                             223.10          19.40
                                                                          V23  EL=19     130
                                             226.40          19.39
                                                                          V23  EL=19     130
                                             229.70          19.38
                                                                          V23  EL=19     130
                                             232.90          19.37
                                                                          V23  EL=19     130
                                             236.20          19.36
                                                                          V23  EL=19     130
                                             239.50          19.34
                                                                          V23  EL=19     130
                                             242.80          19.33
                                                                          V23  EL=19     130
                                             246.10          19.32
                                                                          V23  EL=19     130
                                             249.30          19.31
                                                                          V23  EL=19     130
                                             252.60          19.30
                                                                          V23  EL=19     130
                                             255.90          19.29
                                                                          V23  EL=19     130
                                             259.20          19.27
                                                                          V23  EL=19     130
                                             262.50          19.26
                                                                          V23  EL=19     130
                                             265.70          19.25
                                                                          V23  EL=19     130
                                             269.00          19.24
                                                                          V23  EL=19     130
                                             272.30          19.22
                                                                          V23  EL=19     130
                                             275.60          19.21
                                                                          V23  EL=19     130
                                             278.90          19.20
                                                                          V23  EL=19     130
                                             282.20          19.19
                                                                          V23  EL=19     130
                                             285.40          19.18
                                                                          V23  EL=19     130
                                             288.70          19.16
                                                                          V23  EL=19     130
                                             292.00          19.15
                                                                          V23  EL=19     130
                                             295.30          19.14
                                                                          V23  EL=19     130
                                             298.60          19.13
                                                                          V23  EL=19     130
                                             301.80          19.12
                                                                          V23  EL=19     130
                                             305.10          19.10
                                                                          V23  EL=19     130
                                             308.40          19.09
                                                                          V23  EL=19     130
                                             311.70          19.08
                                                                          V23  EL=19     130
                                             315.00          19.07
                                                                          V23  EL=19     130
                                             318.20          19.05
                                                                          V23  EL=19     130
                                             321.50          19.04
                                                                          V23  EL=19     130
                                             324.80          19.02
                                                                          V23  EL=19     130
                                             328.10          19.00
                                                                          V23  EL=19     130
                                             331.40          18.99
                                                                          V23  EL=19     130
                                             334.60          18.97
                                                                          V23  EL=19     130
                                             337.90          18.95
                                                                          V23  EL=19     130
                                             341.20          18.94
                                                                          V23  EL=19     130
                                             344.50          18.92
                                                                          V23  EL=19     130
                                             347.80          18.91
                                                                          V23  EL=19     130
                                             351.00          18.89
                                                                          V23  EL=19     130
                                             354.30          18.88
                                                                          V23  EL=19     130
                                             357.60          18.86
                                                                          V23  EL=19     130
                                             360.90          18.84
                                                                          V23  EL=19     130
                                             364.20          18.83
                                                                          V23  EL=19     130
                                             367.50          18.81
                                                                          V23  EL=19     130
                                             370.70          18.80
                                                                          V23  EL=19     130
                                             374.00          18.78
                                                                          V23  EL=19     130
                                             377.30          18.77
                                                                          V23  EL=19     130
                                             380.60          18.75
                                                                          V23  EL=19     130
                                             383.90          18.73
                                                                          V23  EL=19     130
                                             387.10          18.72
                                                                          V23  EL=19     130
                                             390.40          18.70
                                                                          V23  EL=19     130
                                             393.70          18.69
                                                                          V23  EL=19     130
                                             397.00          18.67
                                                                          V23  EL=19     130
                                             400.30          18.66
                                                                          V23  EL=19     130
                                             403.50          18.64
                                                                          V23  EL=19     130
                                             406.80          18.62
                                                                          V23  EL=19     130
                                             410.10          18.61
                                                                          V23  EL=19     130
                                             413.40          18.59
                                                                          V23  EL=19     130
                                             416.70          18.58
                                                                          V23  EL=19     130
                                             419.90          18.56
                                                                          V23  EL=19     130
                                             423.20          18.53
                                                                          V23  EL=19     130
                                             423.48          18.50
                                                                          V23  EL=18     130
                                             426.50          18.22
                                                                          V23  EL=18     130
                                             429.80          17.86
                                                                          V23  EL=18     130
                                             433.10          17.51
                                                                          V23  EL=18     130
                                             433.17          17.50
                                                                          V23  EL=17     130
                                             436.40          17.15
                                                                          V23  EL=17     130
                                             439.60          16.80
                                                                          V23  EL=17     130
                                             442.37          16.50
                                                                          V23  EL=16     130
                                             442.90          16.44
                                                                          V23  EL=16     130
                                             446.20          16.09
                                                                          V23  EL=16     130
                                             449.50          15.73
                                                                          V23  EL=16     130
                                             450.81          15.50
                                                                          V23  EL=15     130
                                             452.80          15.15
                                                                          V23  EL=15     130
                                             453.68          14.50
                                                                          V23  EL=14     130
                                             455.03          13.50
                                                                          V23  EL=13     130
                                             456.00          12.78
                                                                          V23  EL=13     130
                                             459.30          12.71
                                                                          V23  EL=13     130
                                             462.60          12.64
                                                                          V23  EL=13     130
                                             465.90          12.55
                                                                          V23  EL=13     130
                                             467.98          12.50
                                                                          V23  EL=12     130
                                             469.20          12.47
                                                                          V24  EL=12     140
                                             472.40          12.42
                                                                          V24  EL=12     140
                                             475.70          12.36
                                                                          V24  EL=12     140
                                             478.28          12.23
                                                                          A21  EL=12     110
                                             479.00          12.26
                                                                          A21  EL=12     110
                                             482.30          12.18
                                                                          A21  EL=12     110
                                             485.60          12.10
                                                                          A21  EL=12     110
                                             488.80          12.03
                                                                          A21  EL=12     110
                                             492.10          11.97
                                                                          A21  EL=12     110
                                             495.40          11.91
                                                                          A21  EL=12     110
                                             498.89          11.50
                                                                          A21  EL=11     110
                                             501.20          11.23
                                                  ZONE TERMINATED AT END OF TRANSECT
                                                  PART 7   POSTSCRIPT NOTES
                         PS#  1   START(404020.1166,4833821.4132)                                              
                         PS#  2   END(403962.9959,4834037.0921)                                                
-1.000000e+00
