 WAVE HEIGHT COMPUTATIONS FOR FLOOD INSURANCE STUDIES (WHAFIS VERSION 4.0G, 08_2007)
 Executed on: Thu Mar  5 16:11:15 2020
 Input file:  C:\FEMA-TransectAnalysis\LOMR-TransectAnalysis-Wells\3_whafis\whafis4\YK-73.dat                                                 
 Output file: C:\FEMA-TransectAnalysis\LOMR-TransectAnalysis-Wells\3_whafis\whafis4\YK-73.out                                                 
                                                              header                                                                
                                                     THIS IS A 100-YEAR CASE
                                       THE FOLLOWING NON-DEFAULT WIND SPEEDS ARE BEING USED
                                            WINDIF  56.14  WINDOF  56.14  WINDVH  60.00
                                                             PART1 INPUT
          IE      0.000    -22.947      1.000      1.000      8.934     32.330     14.800     56.140      0.013      0.000
          OF      3.300    -22.903      0.000      8.939      0.000      0.000      0.000      0.000      0.013      0.000
          OF      6.600    -22.859      0.000      8.943      0.000      0.000      0.000      0.000      0.014      0.000
          OF      9.800    -22.815      0.000      8.948      0.000      0.000      0.000      0.000      0.014      0.000
          OF     13.100    -22.771      0.000      8.952      0.000      0.000      0.000      0.000      0.013      0.000
          OF     16.400    -22.727      0.000      8.957      0.000      0.000      0.000      0.000      0.013      0.000
          OF     19.700    -22.683      0.000      8.962      0.000      0.000      0.000      0.000      0.013      0.000
          OF     23.000    -22.642      0.000      8.967      0.000      0.000      0.000      0.000      0.012      0.000
          OF     26.200    -22.605      0.000      8.972      0.000      0.000      0.000      0.000      0.012      0.000
          OF     29.500    -22.567      0.000      8.977      0.000      0.000      0.000      0.000      0.012      0.000
          OF     32.800    -22.529      0.000      8.983      0.000      0.000      0.000      0.000      0.012      0.000
          OF     36.100    -22.491      0.000      8.988      0.000      0.000      0.000      0.000      0.012      0.000
          OF     39.400    -22.453      0.000      8.993      0.000      0.000      0.000      0.000      0.012      0.000
          OF     42.700    -22.415      0.000      8.998      0.000      0.000      0.000      0.000      0.012      0.000
          OF     45.900    -22.377      0.000      9.003      0.000      0.000      0.000      0.000      0.012      0.000
          OF     49.200    -22.339      0.000      9.008      0.000      0.000      0.000      0.000      0.012      0.000
          OF     52.500    -22.301      0.000      9.014      0.000      0.000      0.000      0.000      0.011      0.000
          OF     55.800    -22.264      0.000      9.019      0.000      0.000      0.000      0.000      0.011      0.000
          OF     59.100    -22.226      0.000      9.024      0.000      0.000      0.000      0.000      0.012      0.000
          OF     62.300    -22.188      0.000      9.029      0.000      0.000      0.000      0.000      0.012      0.000
          OF     65.600    -22.150      0.000      9.034      0.000      0.000      0.000      0.000      0.012      0.000
          OF     68.900    -22.112      0.000      9.039      0.000      0.000      0.000      0.000      0.012      0.000
          OF     72.200    -22.074      0.000      9.044      0.000      0.000      0.000      0.000      0.012      0.000
          OF     75.500    -22.036      0.000      9.049      0.000      0.000      0.000      0.000      0.012      0.000
          OF     78.700    -21.998      0.000      9.054      0.000      0.000      0.000      0.000      0.012      0.000
          OF     82.000    -21.960      0.000      9.058      0.000      0.000      0.000      0.000      0.012      0.000
          OF     85.300    -21.922      0.000      9.063      0.000      0.000      0.000      0.000      0.011      0.000
          OF     88.600    -21.885      0.000      9.068      0.000      0.000      0.000      0.000      0.011      0.000
          OF     91.900    -21.850      0.000      9.072      0.000      0.000      0.000      0.000      0.011      0.000
          OF     95.100    -21.815      0.000      9.077      0.000      0.000      0.000      0.000      0.011      0.000
          OF     98.400    -21.780      0.000      9.082      0.000      0.000      0.000      0.000      0.010      0.000
          OF    101.700    -21.746      0.000      9.086      0.000      0.000      0.000      0.000      0.010      0.000
          OF    105.000    -21.711      0.000      9.091      0.000      0.000      0.000      0.000      0.011      0.000
          OF    108.300    -21.676      0.000      9.095      0.000      0.000      0.000      0.000      0.011      0.000
          OF    111.500    -21.642      0.000      9.100      0.000      0.000      0.000      0.000      0.010      0.000
          OF    114.800    -21.608      0.000      9.104      0.000      0.000      0.000      0.000      0.010      0.000
          OF    118.100    -21.578      0.000      9.108      0.000      0.000      0.000      0.000      0.009      0.000
          OF    121.400    -21.548      0.000      9.113      0.000      0.000      0.000      0.000      0.009      0.000
          OF    124.700    -21.518      0.000      9.117      0.000      0.000      0.000      0.000      0.009      0.000
          OF    128.000    -21.488      0.000      9.121      0.000      0.000      0.000      0.000      0.009      0.000
          OF    131.200    -21.458      0.000      9.125      0.000      0.000      0.000      0.000      0.009      0.000
          OF    134.500    -21.427      0.000      9.129      0.000      0.000      0.000      0.000      0.009      0.000
          OF    137.800    -21.397      0.000      9.134      0.000      0.000      0.000      0.000      0.009      0.000
          OF    141.100    -21.368      0.000      9.138      0.000      0.000      0.000      0.000      0.009      0.000
          OF    144.400    -21.340      0.000      9.142      0.000      0.000      0.000      0.000      0.009      0.000
          OF    147.600    -21.311      0.000      9.146      0.000      0.000      0.000      0.000      0.009      0.000
          OF    150.900    -21.283      0.000      9.149      0.000      0.000      0.000      0.000      0.009      0.000
          OF    154.200    -21.254      0.000      9.153      0.000      0.000      0.000      0.000      0.009      0.000
          OF    157.500    -21.226      0.000      9.157      0.000      0.000      0.000      0.000      0.009      0.000
          OF    160.800    -21.197      0.000      9.161      0.000      0.000      0.000      0.000      0.009      0.000
          OF    164.000    -21.169      0.000      9.166      0.000      0.000      0.000      0.000      0.009      0.000
          OF    167.300    -21.140      0.000      9.170      0.000      0.000      0.000      0.000      0.009      0.000
          OF    170.600    -21.112      0.000      9.174      0.000      0.000      0.000      0.000      0.009      0.000
          OF    173.900    -21.084      0.000      9.178      0.000      0.000      0.000      0.000      0.009      0.000
          OF    177.200    -21.055      0.000      9.182      0.000      0.000      0.000      0.000      0.009      0.000
          OF    180.400    -21.027      0.000      9.186      0.000      0.000      0.000      0.000      0.009      0.000
          OF    183.700    -20.998      0.000      9.189      0.000      0.000      0.000      0.000      0.009      0.000
          OF    187.000    -20.970      0.000      9.193      0.000      0.000      0.000      0.000      0.009      0.000
          OF    190.300    -20.941      0.000      9.196      0.000      0.000      0.000      0.000      0.009      0.000
          OF    193.600    -20.913      0.000      9.200      0.000      0.000      0.000      0.000      0.009      0.000
          OF    196.800    -20.884      0.000      9.203      0.000      0.000      0.000      0.000      0.009      0.000
          OF    200.100    -20.856      0.000      9.207      0.000      0.000      0.000      0.000      0.009      0.000
          OF    203.400    -20.827      0.000      9.210      0.000      0.000      0.000      0.000      0.009      0.000
          OF    206.700    -20.799      0.000      9.212      0.000      0.000      0.000      0.000      0.009      0.000
          OF    210.000    -20.771      0.000      9.215      0.000      0.000      0.000      0.000      0.009      0.000
          OF    213.300    -20.742      0.000      9.219      0.000      0.000      0.000      0.000      0.009      0.000
          OF    216.500    -20.714      0.000      9.222      0.000      0.000      0.000      0.000      0.009      0.000
          OF    219.800    -20.685      0.000      9.224      0.000      0.000      0.000      0.000      0.009      0.000
          OF    223.100    -20.657      0.000      9.227      0.000      0.000      0.000      0.000      0.011      0.000
          OF    226.400    -20.613      0.000      9.230      0.000      0.000      0.000      0.000      0.014      0.000
          OF    229.700    -20.564      0.000      9.233      0.000      0.000      0.000      0.000      0.015      0.000
          OF    232.900    -20.515      0.000      9.235      0.000      0.000      0.000      0.000      0.015      0.000
          OF    236.200    -20.466      0.000      9.238      0.000      0.000      0.000      0.000      0.015      0.000
          OF    239.500    -20.417      0.000      9.240      0.000      0.000      0.000      0.000      0.015      0.000
          OF    242.800    -20.367      0.000      9.243      0.000      0.000      0.000      0.000      0.015      0.000
          OF    246.100    -20.318      0.000      9.245      0.000      0.000      0.000      0.000      0.015      0.000
          OF    249.300    -20.269      0.000      9.248      0.000      0.000      0.000      0.000      0.015      0.000
          OF    252.600    -20.220      0.000      9.251      0.000      0.000      0.000      0.000      0.015      0.000
          OF    255.900    -20.171      0.000      9.253      0.000      0.000      0.000      0.000      0.015      0.000
          OF    259.200    -20.121      0.000      9.256      0.000      0.000      0.000      0.000      0.015      0.000
          OF    262.500    -20.072      0.000      9.258      0.000      0.000      0.000      0.000      0.015      0.000
          OF    265.700    -20.023      0.000      9.261      0.000      0.000      0.000      0.000      0.015      0.000
          OF    269.000    -19.974      0.000      9.263      0.000      0.000      0.000      0.000      0.015      0.000
          OF    272.300    -19.925      0.000      9.266      0.000      0.000      0.000      0.000      0.015      0.000
          OF    275.600    -19.875      0.000      9.268      0.000      0.000      0.000      0.000      0.015      0.000
          OF    278.900    -19.827      0.000      9.271      0.000      0.000      0.000      0.000      0.014      0.000
          OF    282.200    -19.779      0.000      9.273      0.000      0.000      0.000      0.000      0.015      0.000
          OF    285.400    -19.731      0.000      9.276      0.000      0.000      0.000      0.000      0.015      0.000
          OF    288.700    -19.683      0.000      9.278      0.000      0.000      0.000      0.000      0.014      0.000
          OF    292.000    -19.635      0.000      9.281      0.000      0.000      0.000      0.000      0.014      0.000
          OF    295.300    -19.587      0.000      9.283      0.000      0.000      0.000      0.000      0.014      0.000
          OF    298.600    -19.539      0.000      9.285      0.000      0.000      0.000      0.000      0.015      0.000
          OF    301.800    -19.492      0.000      9.288      0.000      0.000      0.000      0.000      0.015      0.000
          OF    305.100    -19.444      0.000      9.290      0.000      0.000      0.000      0.000      0.014      0.000
          OF    308.400    -19.396      0.000      9.293      0.000      0.000      0.000      0.000      0.014      0.000
          OF    311.700    -19.348      0.000      9.295      0.000      0.000      0.000      0.000      0.014      0.000
          OF    315.000    -19.300      0.000      9.297      0.000      0.000      0.000      0.000      0.015      0.000
          OF    318.200    -19.252      0.000      9.300      0.000      0.000      0.000      0.000      0.015      0.000
          OF    321.500    -19.204      0.000      9.302      0.000      0.000      0.000      0.000      0.014      0.000
          OF    324.800    -19.156      0.000      9.304      0.000      0.000      0.000      0.000      0.014      0.000
          OF    328.100    -19.108      0.000      9.306      0.000      0.000      0.000      0.000      0.014      0.000
          OF    331.400    -19.060      0.000      9.308      0.000      0.000      0.000      0.000      0.015      0.000
          OF    334.600    -19.013      0.000      9.311      0.000      0.000      0.000      0.000      0.017      0.000
          OF    337.900    -18.952      0.000      9.313      0.000      0.000      0.000      0.000      0.019      0.000
          OF    341.200    -18.886      0.000      9.315      0.000      0.000      0.000      0.000      0.020      0.000
          OF    344.500    -18.820      0.000      9.317      0.000      0.000      0.000      0.000      0.020      0.000
          OF    347.800    -18.754      0.000      9.319      0.000      0.000      0.000      0.000      0.020      0.000
          OF    351.000    -18.688      0.000      9.321      0.000      0.000      0.000      0.000      0.020      0.000
          OF    354.300    -18.623      0.000      9.323      0.000      0.000      0.000      0.000      0.020      0.000
          OF    357.600    -18.557      0.000      9.325      0.000      0.000      0.000      0.000      0.020      0.000
          OF    360.900    -18.491      0.000      9.327      0.000      0.000      0.000      0.000      0.020      0.000
          OF    364.200    -18.425      0.000      9.329      0.000      0.000      0.000      0.000      0.020      0.000
          OF    367.500    -18.359      0.000      9.331      0.000      0.000      0.000      0.000      0.020      0.000
          OF    370.700    -18.293      0.000      9.333      0.000      0.000      0.000      0.000      0.020      0.000
          OF    374.000    -18.227      0.000      9.335      0.000      0.000      0.000      0.000      0.020      0.000
          OF    377.300    -18.161      0.000      9.337      0.000      0.000      0.000      0.000      0.020      0.000
          OF    380.600    -18.095      0.000      9.340      0.000      0.000      0.000      0.000      0.020      0.000
          OF    383.900    -18.029      0.000      9.342      0.000      0.000      0.000      0.000      0.020      0.000
          OF    387.100    -17.963      0.000      9.344      0.000      0.000      0.000      0.000      0.020      0.000
          OF    390.400    -17.897      0.000      9.346      0.000      0.000      0.000      0.000      0.020      0.000
          OF    393.700    -17.831      0.000      9.348      0.000      0.000      0.000      0.000      0.020      0.000
          OF    397.000    -17.765      0.000      9.350      0.000      0.000      0.000      0.000      0.020      0.000
          OF    400.300    -17.700      0.000      9.352      0.000      0.000      0.000      0.000      0.020      0.000
          OF    403.500    -17.634      0.000      9.354      0.000      0.000      0.000      0.000      0.020      0.000
          OF    406.800    -17.568      0.000      9.356      0.000      0.000      0.000      0.000      0.020      0.000
          OF    410.100    -17.502      0.000      9.358      0.000      0.000      0.000      0.000      0.020      0.000
          OF    413.400    -17.436      0.000      9.360      0.000      0.000      0.000      0.000      0.020      0.000
          OF    416.700    -17.370      0.000      9.362      0.000      0.000      0.000      0.000      0.020      0.000
          OF    419.900    -17.304      0.000      9.364      0.000      0.000      0.000      0.000      0.020      0.000
          OF    423.200    -17.238      0.000      9.366      0.000      0.000      0.000      0.000      0.021      0.000
          OF    426.500    -17.166      0.000      9.368      0.000      0.000      0.000      0.000      0.022      0.000
          OF    429.800    -17.094      0.000      9.370      0.000      0.000      0.000      0.000      0.022      0.000
          OF    433.100    -17.021      0.000      9.372      0.000      0.000      0.000      0.000      0.022      0.000
          OF    436.400    -16.949      0.000      9.374      0.000      0.000      0.000      0.000      0.022      0.000
          OF    439.600    -16.877      0.000      9.377      0.000      0.000      0.000      0.000      0.022      0.000
          OF    442.900    -16.805      0.000      9.379      0.000      0.000      0.000      0.000      0.022      0.000
          OF    446.200    -16.733      0.000      9.381      0.000      0.000      0.000      0.000      0.019      0.000
          OF    449.500    -16.678      0.000      9.383      0.000      0.000      0.000      0.000      0.016      0.000
          OF    452.800    -16.628      0.000      9.385      0.000      0.000      0.000      0.000      0.015      0.000
          OF    456.000    -16.577      0.000      9.388      0.000      0.000      0.000      0.000      0.016      0.000
          OF    459.300    -16.526      0.000      9.390      0.000      0.000      0.000      0.000      0.015      0.000
          OF    462.600    -16.475      0.000      9.392      0.000      0.000      0.000      0.000      0.015      0.000
          OF    465.900    -16.424      0.000      9.395      0.000      0.000      0.000      0.000      0.015      0.000
          OF    469.200    -16.373      0.000      9.397      0.000      0.000      0.000      0.000      0.016      0.000
          OF    472.400    -16.322      0.000      9.400      0.000      0.000      0.000      0.000      0.016      0.000
          OF    475.700    -16.271      0.000      9.402      0.000      0.000      0.000      0.000      0.017      0.000
          OF    479.000    -16.211      0.000      9.404      0.000      0.000      0.000      0.000      0.019      0.000
          OF    482.300    -16.144      0.000      9.406      0.000      0.000      0.000      0.000      0.020      0.000
          OF    485.600    -16.078      0.000      9.409      0.000      0.000      0.000      0.000      0.021      0.000
          OF    488.800    -16.011      0.000      9.411      0.000      0.000      0.000      0.000      0.021      0.000
          OF    492.100    -15.944      0.000      9.413      0.000      0.000      0.000      0.000      0.020      0.000
          OF    495.400    -15.878      0.000      9.415      0.000      0.000      0.000      0.000      0.020      0.000
          OF    498.700    -15.811      0.000      9.418      0.000      0.000      0.000      0.000      0.020      0.000
          OF    502.000    -15.745      0.000      9.420      0.000      0.000      0.000      0.000      0.021      0.000
          OF    505.200    -15.678      0.000      9.422      0.000      0.000      0.000      0.000      0.021      0.000
          OF    508.500    -15.612      0.000      9.424      0.000      0.000      0.000      0.000      0.020      0.000
          OF    511.800    -15.545      0.000      9.427      0.000      0.000      0.000      0.000      0.020      0.000
          OF    515.100    -15.479      0.000      9.429      0.000      0.000      0.000      0.000      0.020      0.000
          OF    518.400    -15.412      0.000      9.431      0.000      0.000      0.000      0.000      0.020      0.000
          OF    521.700    -15.345      0.000      9.434      0.000      0.000      0.000      0.000      0.021      0.000
          OF    524.900    -15.279      0.000      9.436      0.000      0.000      0.000      0.000      0.021      0.000
          OF    528.200    -15.212      0.000      9.438      0.000      0.000      0.000      0.000      0.020      0.000
          OF    531.500    -15.146      0.000      9.440      0.000      0.000      0.000      0.000      0.020      0.000
          OF    534.800    -15.079      0.000      9.443      0.000      0.000      0.000      0.000      0.020      0.000
          OF    538.100    -15.013      0.000      9.445      0.000      0.000      0.000      0.000      0.021      0.000
          OF    541.300    -14.946      0.000      9.447      0.000      0.000      0.000      0.000      0.021      0.000
          OF    544.600    -14.879      0.000      9.450      0.000      0.000      0.000      0.000      0.020      0.000
          OF    547.900    -14.813      0.000      9.452      0.000      0.000      0.000      0.000      0.020      0.000
          OF    551.200    -14.746      0.000      9.454      0.000      0.000      0.000      0.000      0.020      0.000
          OF    554.500    -14.680      0.000      9.457      0.000      0.000      0.000      0.000      0.021      0.000
          OF    557.700    -14.611      0.000      9.459      0.000      0.000      0.000      0.000      0.022      0.000
          OF    561.000    -14.540      0.000      9.461      0.000      0.000      0.000      0.000      0.022      0.000
          OF    564.300    -14.468      0.000      9.463      0.000      0.000      0.000      0.000      0.022      0.000
          OF    567.600    -14.397      0.000      9.466      0.000      0.000      0.000      0.000      0.022      0.000
          OF    570.900    -14.326      0.000      9.468      0.000      0.000      0.000      0.000      0.022      0.000
          OF    574.100    -14.254      0.000      9.470      0.000      0.000      0.000      0.000      0.022      0.000
          OF    577.400    -14.183      0.000      9.473      0.000      0.000      0.000      0.000      0.022      0.000
          OF    580.700    -14.111      0.000      9.475      0.000      0.000      0.000      0.000      0.022      0.000
          OF    584.000    -14.040      0.000      9.477      0.000      0.000      0.000      0.000      0.022      0.000
          OF    587.300    -13.969      0.000      9.480      0.000      0.000      0.000      0.000      0.022      0.000
          OF    590.500    -13.897      0.000      9.482      0.000      0.000      0.000      0.000      0.022      0.000
          OF    593.800    -13.826      0.000      9.485      0.000      0.000      0.000      0.000      0.022      0.000
          OF    597.100    -13.755      0.000      9.487      0.000      0.000      0.000      0.000      0.022      0.000
          OF    600.400    -13.683      0.000      9.489      0.000      0.000      0.000      0.000      0.022      0.000
          OF    603.700    -13.612      0.000      9.492      0.000      0.000      0.000      0.000      0.022      0.000
          OF    607.000    -13.540      0.000      9.494      0.000      0.000      0.000      0.000      0.022      0.000
          OF    610.200    -13.469      0.000      9.497      0.000      0.000      0.000      0.000      0.022      0.000
          OF    613.500    -13.398      0.000      9.500      0.000      0.000      0.000      0.000      0.022      0.000
          OF    616.800    -13.326      0.000      9.502      0.000      0.000      0.000      0.000      0.022      0.000
          OF    620.100    -13.255      0.000      9.504      0.000      0.000      0.000      0.000      0.022      0.000
          OF    623.400    -13.184      0.000      9.507      0.000      0.000      0.000      0.000      0.022      0.000
          OF    626.600    -13.112      0.000      9.509      0.000      0.000      0.000      0.000      0.022      0.000
          OF    629.900    -13.041      0.000      9.512      0.000      0.000      0.000      0.000      0.022      0.000
          OF    633.200    -12.969      0.000      9.515      0.000      0.000      0.000      0.000      0.022      0.000
          OF    636.500    -12.898      0.000      9.517      0.000      0.000      0.000      0.000      0.022      0.000
          OF    639.800    -12.827      0.000      9.519      0.000      0.000      0.000      0.000      0.021      0.000
          OF    643.000    -12.760      0.000      9.522      0.000      0.000      0.000      0.000      0.021      0.000
          OF    646.300    -12.693      0.000      9.525      0.000      0.000      0.000      0.000      0.020      0.000
          OF    649.600    -12.627      0.000      9.527      0.000      0.000      0.000      0.000      0.020      0.000
          OF    652.900    -12.560      0.000      9.530      0.000      0.000      0.000      0.000      0.020      0.000
          OF    656.200    -12.493      0.000      9.533      0.000      0.000      0.000      0.000      0.021      0.000
          OF    659.400    -12.427      0.000      9.535      0.000      0.000      0.000      0.000      0.021      0.000
          OF    662.700    -12.360      0.000      9.538      0.000      0.000      0.000      0.000      0.021      0.000
          OF    666.000    -12.290      0.000      9.540      0.000      0.000      0.000      0.000      0.022      0.000
          OF    669.300    -12.217      0.000      9.543      0.000      0.000      0.000      0.000      0.022      0.000
          OF    672.600    -12.143      0.000      9.545      0.000      0.000      0.000      0.000      0.022      0.000
          OF    675.900    -12.070      0.000      9.548      0.000      0.000      0.000      0.000      0.023      0.000
          OF    679.100    -11.996      0.000      9.551      0.000      0.000      0.000      0.000      0.023      0.000
          OF    682.400    -11.923      0.000      9.553      0.000      0.000      0.000      0.000      0.022      0.000
          OF    685.700    -11.850      0.000      9.556      0.000      0.000      0.000      0.000      0.022      0.000
          OF    689.000    -11.776      0.000      9.558      0.000      0.000      0.000      0.000      0.022      0.000
          OF    692.300    -11.703      0.000      9.561      0.000      0.000      0.000      0.000      0.023      0.000
          OF    695.500    -11.629      0.000      9.563      0.000      0.000      0.000      0.000      0.023      0.000
          OF    698.800    -11.556      0.000      9.566      0.000      0.000      0.000      0.000      0.022      0.000
          OF    702.100    -11.483      0.000      9.568      0.000      0.000      0.000      0.000      0.022      0.000
          OF    705.400    -11.409      0.000      9.571      0.000      0.000      0.000      0.000      0.022      0.000
          OF    708.700    -11.336      0.000      9.574      0.000      0.000      0.000      0.000      0.023      0.000
          OF    711.900    -11.262      0.000      9.577      0.000      0.000      0.000      0.000      0.023      0.000
          OF    715.200    -11.188      0.000      9.579      0.000      0.000      0.000      0.000      0.023      0.000
          OF    718.500    -11.113      0.000      9.582      0.000      0.000      0.000      0.000      0.023      0.000
          OF    721.800    -11.039      0.000      9.585      0.000      0.000      0.000      0.000      0.022      0.000
          OF    725.100    -10.965      0.000      9.587      0.000      0.000      0.000      0.000      0.023      0.000
          OF    728.300    -10.891      0.000      9.590      0.000      0.000      0.000      0.000      0.023      0.000
          OF    731.600    -10.816      0.000      9.592      0.000      0.000      0.000      0.000      0.023      0.000
          OF    734.900    -10.742      0.000      9.595      0.000      0.000      0.000      0.000      0.022      0.000
          OF    738.200    -10.668      0.000      9.598      0.000      0.000      0.000      0.000      0.022      0.000
          OF    741.500    -10.594      0.000      9.601      0.000      0.000      0.000      0.000      0.023      0.000
          OF    744.700    -10.519      0.000      9.603      0.000      0.000      0.000      0.000      0.023      0.000
          OF    748.000    -10.445      0.000      9.606      0.000      0.000      0.000      0.000      0.022      0.000
          OF    751.300    -10.371      0.000      9.609      0.000      0.000      0.000      0.000      0.022      0.000
          OF    754.600    -10.297      0.000      9.611      0.000      0.000      0.000      0.000      0.023      0.000
          OF    757.900    -10.222      0.000      9.614      0.000      0.000      0.000      0.000      0.023      0.000
          OF    761.200    -10.148      0.000      9.617      0.000      0.000      0.000      0.000      0.023      0.000
          OF    764.400    -10.074      0.000      9.620      0.000      0.000      0.000      0.000      0.023      0.000
          OF    767.700    -10.000      0.000      9.623      0.000      0.000      0.000      0.000      0.022      0.000
          OF    771.000     -9.930      0.000      9.625      0.000      0.000      0.000      0.000      0.018      0.000
          OF    774.300     -9.880      0.000      9.628      0.000      0.000      0.000      0.000      0.015      0.000
          OF    777.600     -9.830      0.000      9.631      0.000      0.000      0.000      0.000      0.015      0.000
          OF    780.800     -9.781      0.000      9.634      0.000      0.000      0.000      0.000      0.015      0.000
          OF    784.100     -9.731      0.000      9.637      0.000      0.000      0.000      0.000      0.015      0.000
          OF    787.400     -9.682      0.000      9.640      0.000      0.000      0.000      0.000      0.015      0.000
          OF    790.700     -9.632      0.000      9.643      0.000      0.000      0.000      0.000      0.015      0.000
          OF    794.000     -9.583      0.000      9.646      0.000      0.000      0.000      0.000      0.015      0.000
          OF    797.200     -9.533      0.000      9.649      0.000      0.000      0.000      0.000      0.015      0.000
          OF    800.500     -9.483      0.000      9.652      0.000      0.000      0.000      0.000      0.015      0.000
          OF    803.800     -9.434      0.000      9.655      0.000      0.000      0.000      0.000      0.015      0.000
          OF    807.100     -9.384      0.000      9.657      0.000      0.000      0.000      0.000      0.015      0.000
          OF    810.400     -9.335      0.000      9.660      0.000      0.000      0.000      0.000      0.015      0.000
          OF    813.600     -9.285      0.000      9.663      0.000      0.000      0.000      0.000      0.015      0.000
          OF    816.900     -9.236      0.000      9.666      0.000      0.000      0.000      0.000      0.015      0.000
          OF    820.200     -9.186      0.000      9.668      0.000      0.000      0.000      0.000      0.015      0.000
          OF    823.500     -9.137      0.000      9.671      0.000      0.000      0.000      0.000      0.015      0.000
          OF    826.800     -9.087      0.000      9.674      0.000      0.000      0.000      0.000      0.015      0.000
          OF    830.100     -9.038      0.000      9.677      0.000      0.000      0.000      0.000      0.015      0.000
          OF    833.300     -8.988      0.000      9.679      0.000      0.000      0.000      0.000      0.015      0.000
          OF    836.600     -8.938      0.000      9.682      0.000      0.000      0.000      0.000      0.015      0.000
          OF    839.900     -8.889      0.000      9.684      0.000      0.000      0.000      0.000      0.015      0.000
          OF    843.200     -8.839      0.000      9.687      0.000      0.000      0.000      0.000      0.015      0.000
          OF    846.500     -8.790      0.000      9.690      0.000      0.000      0.000      0.000      0.015      0.000
          OF    849.700     -8.740      0.000      9.692      0.000      0.000      0.000      0.000      0.015      0.000
          OF    853.000     -8.691      0.000      9.695      0.000      0.000      0.000      0.000      0.015      0.000
          OF    856.300     -8.641      0.000      9.698      0.000      0.000      0.000      0.000      0.015      0.000
          OF    859.600     -8.592      0.000      9.700      0.000      0.000      0.000      0.000      0.015      0.000
          OF    862.900     -8.542      0.000      9.703      0.000      0.000      0.000      0.000      0.013      0.000
          OF    866.100     -8.504      0.000      9.705      0.000      0.000      0.000      0.000      0.012      0.000
          OF    869.400     -8.466      0.000      9.708      0.000      0.000      0.000      0.000      0.012      0.000
          OF    872.700     -8.428      0.000      9.710      0.000      0.000      0.000      0.000      0.011      0.000
          OF    876.000     -8.391      0.000      9.713      0.000      0.000      0.000      0.000      0.009      0.000
          OF    879.300     -8.367      0.000      9.715      0.000      0.000      0.000      0.000      0.008      0.000
          OF    882.500     -8.342      0.000      9.718      0.000      0.000      0.000      0.000      0.008      0.000
          OF    885.800     -8.318      0.000      9.721      0.000      0.000      0.000      0.000      0.007      0.000
          OF    889.100     -8.293      0.000      9.723      0.000      0.000      0.000      0.000      0.007      0.000
          OF    892.400     -8.268      0.000      9.726      0.000      0.000      0.000      0.000      0.007      0.000
          OF    895.700     -8.244      0.000      9.729      0.000      0.000      0.000      0.000      0.008      0.000
          OF    898.900     -8.219      0.000      9.731      0.000      0.000      0.000      0.000      0.008      0.000
          OF    902.200     -8.195      0.000      9.733      0.000      0.000      0.000      0.000      0.007      0.000
          OF    905.500     -8.170      0.000      9.736      0.000      0.000      0.000      0.000      0.007      0.000
          OF    908.800     -8.146      0.000      9.738      0.000      0.000      0.000      0.000      0.007      0.000
          OF    912.100     -8.121      0.000      9.740      0.000      0.000      0.000      0.000      0.007      0.000
          OF    915.400     -8.096      0.000      9.743      0.000      0.000      0.000      0.000      0.008      0.000
          OF    918.600     -8.072      0.000      9.745      0.000      0.000      0.000      0.000      0.008      0.000
          OF    921.900     -8.047      0.000      9.747      0.000      0.000      0.000      0.000      0.007      0.000
          OF    925.200     -8.023      0.000      9.749      0.000      0.000      0.000      0.000      0.007      0.000
          OF    928.500     -7.998      0.000      9.751      0.000      0.000      0.000      0.000      0.007      0.000
          OF    931.800     -7.974      0.000      9.753      0.000      0.000      0.000      0.000      0.008      0.000
          OF    935.000     -7.949      0.000      9.756      0.000      0.000      0.000      0.000      0.008      0.000
          OF    938.300     -7.924      0.000      9.758      0.000      0.000      0.000      0.000      0.007      0.000
          OF    941.600     -7.900      0.000      9.760      0.000      0.000      0.000      0.000      0.007      0.000
          OF    944.900     -7.875      0.000      9.762      0.000      0.000      0.000      0.000      0.007      0.000
          OF    948.200     -7.851      0.000      9.764      0.000      0.000      0.000      0.000      0.008      0.000
          OF    951.400     -7.826      0.000      9.766      0.000      0.000      0.000      0.000      0.008      0.000
          OF    954.700     -7.802      0.000      9.767      0.000      0.000      0.000      0.000      0.007      0.000
          OF    958.000     -7.777      0.000      9.769      0.000      0.000      0.000      0.000      0.007      0.000
          OF    961.300     -7.753      0.000      9.771      0.000      0.000      0.000      0.000      0.007      0.000
          OF    964.600     -7.728      0.000      9.773      0.000      0.000      0.000      0.000      0.008      0.000
          OF    967.800     -7.703      0.000      9.775      0.000      0.000      0.000      0.000      0.008      0.000
          OF    971.100     -7.679      0.000      9.777      0.000      0.000      0.000      0.000      0.008      0.000
          OF    974.400     -7.651      0.000      9.779      0.000      0.000      0.000      0.000      0.010      0.000
          OF    977.700     -7.612      0.000      9.780      0.000      0.000      0.000      0.000      0.011      0.000
          OF    981.000     -7.576      0.000      9.782      0.000      0.000      0.000      0.000      0.010      0.000
          OF    984.200     -7.546      0.000      9.783      0.000      0.000      0.000      0.000      0.009      0.000
          OF    987.500     -7.516      0.000      9.785      0.000      0.000      0.000      0.000      0.009      0.000
          OF    990.800     -7.485      0.000      9.787      0.000      0.000      0.000      0.000      0.009      0.000
          OF    994.100     -7.457      0.000      9.789      0.000      0.000      0.000      0.000      0.008      0.000
          OF    997.400     -7.432      0.000      9.790      0.000      0.000      0.000      0.000      0.007      0.000
          OF   1000.700     -7.407      0.000      9.792      0.000      0.000      0.000      0.000      0.008      0.000
          OF   1003.900     -7.383      0.000      9.794      0.000      0.000      0.000      0.000      0.008      0.000
          OF   1007.200     -7.358      0.000      9.795      0.000      0.000      0.000      0.000      0.007      0.000
          OF   1010.500     -7.334      0.000      9.797      0.000      0.000      0.000      0.000      0.007      0.000
          OF   1013.800     -7.309      0.000      9.799      0.000      0.000      0.000      0.000      0.007      0.000
          OF   1017.100     -7.285      0.000      9.800      0.000      0.000      0.000      0.000      0.008      0.000
          OF   1020.300     -7.260      0.000      9.802      0.000      0.000      0.000      0.000      0.008      0.000
          OF   1023.600     -7.235      0.000      9.803      0.000      0.000      0.000      0.000      0.007      0.000
          OF   1026.900     -7.211      0.000      9.805      0.000      0.000      0.000      0.000      0.007      0.000
          OF   1030.200     -7.186      0.000      9.806      0.000      0.000      0.000      0.000      0.007      0.000
          OF   1033.500     -7.162      0.000      9.808      0.000      0.000      0.000      0.000      0.008      0.000
          OF   1036.700     -7.137      0.000      9.809      0.000      0.000      0.000      0.000      0.008      0.000
          OF   1040.000     -7.113      0.000      9.811      0.000      0.000      0.000      0.000      0.007      0.000
          OF   1043.300     -7.088      0.000      9.812      0.000      0.000      0.000      0.000      0.007      0.000
          OF   1046.600     -7.063      0.000      9.814      0.000      0.000      0.000      0.000      0.007      0.000
          OF   1049.900     -7.039      0.000      9.815      0.000      0.000      0.000      0.000      0.008      0.000
          OF   1053.100     -7.014      0.000      9.817      0.000      0.000      0.000      0.000      0.008      0.000
          OF   1056.400     -6.990      0.000      9.818      0.000      0.000      0.000      0.000      0.007      0.000
          OF   1059.700     -6.965      0.000      9.820      0.000      0.000      0.000      0.000      0.007      0.000
          OF   1063.000     -6.941      0.000      9.821      0.000      0.000      0.000      0.000      0.007      0.000
          OF   1066.300     -6.916      0.000      9.822      0.000      0.000      0.000      0.000      0.007      0.000
          OF   1069.600     -6.892      0.000      9.824      0.000      0.000      0.000      0.000      0.008      0.000
          OF   1072.800     -6.867      0.000      9.825      0.000      0.000      0.000      0.000      0.008      0.000
          OF   1076.100     -6.843      0.000      9.826      0.000      0.000      0.000      0.000      0.007      0.000
          OF   1079.400     -6.818      0.000      9.828      0.000      0.000      0.000      0.000      0.007      0.000
          OF   1082.700     -6.793      0.000      9.829      0.000      0.000      0.000      0.000      0.013      0.000
          OF   1086.000     -6.734      0.000      9.830      0.000      0.000      0.000      0.000      0.022      0.000
          OF   1089.200     -6.650      0.000      9.831      0.000      0.000      0.000      0.000      0.026      0.000
          OF   1092.500     -6.567      0.000      9.832      0.000      0.000      0.000      0.000      0.025      0.000
          OF   1095.800     -6.483      0.000      9.833      0.000      0.000      0.000      0.000      0.025      0.000
          OF   1099.100     -6.400      0.000      9.834      0.000      0.000      0.000      0.000      0.025      0.000
          OF   1102.400     -6.316      0.000      9.835      0.000      0.000      0.000      0.000      0.026      0.000
          OF   1105.600     -6.233      0.000      9.836      0.000      0.000      0.000      0.000      0.026      0.000
          OF   1108.900     -6.149      0.000      9.837      0.000      0.000      0.000      0.000      0.025      0.000
          OF   1112.200     -6.065      0.000      9.838      0.000      0.000      0.000      0.000      0.025      0.000
          OF   1115.500     -5.982      0.000      9.839      0.000      0.000      0.000      0.000      0.025      0.000
          OF   1118.800     -5.898      0.000      9.840      0.000      0.000      0.000      0.000      0.026      0.000
          OF   1122.000     -5.815      0.000      9.841      0.000      0.000      0.000      0.000      0.026      0.000
          OF   1125.300     -5.731      0.000      9.842      0.000      0.000      0.000      0.000      0.025      0.000
          OF   1128.600     -5.648      0.000      9.843      0.000      0.000      0.000      0.000      0.025      0.000
          OF   1131.900     -5.564      0.000      9.845      0.000      0.000      0.000      0.000      0.025      0.000
          OF   1135.200     -5.481      0.000      9.846      0.000      0.000      0.000      0.000      0.026      0.000
          OF   1138.400     -5.397      0.000      9.848      0.000      0.000      0.000      0.000      0.026      0.000
          OF   1141.700     -5.313      0.000      9.849      0.000      0.000      0.000      0.000      0.025      0.000
          OF   1145.000     -5.230      0.000      9.850      0.000      0.000      0.000      0.000      0.025      0.000
          OF   1148.300     -5.146      0.000      9.852      0.000      0.000      0.000      0.000      0.025      0.000
          OF   1151.600     -5.062      0.000      9.853      0.000      0.000      0.000      0.000      0.025      0.000
          OF   1154.900     -4.978      0.000      9.855      0.000      0.000      0.000      0.000      0.026      0.000
          OF   1158.100     -4.895      0.000      9.856      0.000      0.000      0.000      0.000      0.026      0.000
          OF   1161.400     -4.811      0.000      9.858      0.000      0.000      0.000      0.000      0.025      0.000
          OF   1164.700     -4.727      0.000      9.859      0.000      0.000      0.000      0.000      0.025      0.000
          OF   1168.000     -4.643      0.000      9.861      0.000      0.000      0.000      0.000      0.025      0.000
          OF   1171.300     -4.560      0.000      9.863      0.000      0.000      0.000      0.000      0.026      0.000
          OF   1174.500     -4.476      0.000      9.865      0.000      0.000      0.000      0.000      0.026      0.000
          OF   1177.800     -4.392      0.000      9.866      0.000      0.000      0.000      0.000      0.025      0.000
          OF   1181.100     -4.308      0.000      9.868      0.000      0.000      0.000      0.000      0.025      0.000
          OF   1184.400     -4.225      0.000      9.870      0.000      0.000      0.000      0.000      0.017      0.000
          OF   1187.700     -4.194      0.000      9.872      0.000      0.000      0.000      0.000      0.007      0.000
          OF   1190.900     -4.176      0.000      9.875      0.000      0.000      0.000      0.000      0.005      0.000
          OF   1194.200     -4.158      0.000      9.877      0.000      0.000      0.000      0.000      0.005      0.000
          OF   1197.500     -4.141      0.000      9.880      0.000      0.000      0.000      0.000      0.005      0.000
          OF   1200.800     -4.123      0.000      9.882      0.000      0.000      0.000      0.000      0.005      0.000
          OF   1204.100     -4.106      0.000      9.884      0.000      0.000      0.000      0.000      0.005      0.000
          OF   1207.300     -4.088      0.000      9.887      0.000      0.000      0.000      0.000      0.005      0.000
          OF   1210.600     -4.070      0.000      9.889      0.000      0.000      0.000      0.000      0.005      0.000
          OF   1213.900     -4.052      0.000      9.892      0.000      0.000      0.000      0.000      0.005      0.000
          OF   1217.200     -4.035      0.000      9.894      0.000      0.000      0.000      0.000      0.005      0.000
          OF   1220.500     -4.017      0.000      9.896      0.000      0.000      0.000      0.000      0.005      0.000
          OF   1223.800     -4.000      0.000      9.898      0.000      0.000      0.000      0.000      0.005      0.000
          OF   1227.000     -3.982      0.000      9.900      0.000      0.000      0.000      0.000      0.005      0.000
          OF   1230.300     -3.964      0.000      9.902      0.000      0.000      0.000      0.000      0.005      0.000
          OF   1233.600     -3.947      0.000      9.904      0.000      0.000      0.000      0.000      0.005      0.000
          OF   1236.900     -3.929      0.000      9.906      0.000      0.000      0.000      0.000      0.005      0.000
          OF   1240.200     -3.911      0.000      9.908      0.000      0.000      0.000      0.000      0.005      0.000
          OF   1243.400     -3.894      0.000      9.909      0.000      0.000      0.000      0.000      0.005      0.000
          OF   1246.700     -3.876      0.000      9.911      0.000      0.000      0.000      0.000      0.005      0.000
          OF   1250.000     -3.858      0.000      9.913      0.000      0.000      0.000      0.000      0.005      0.000
          OF   1253.300     -3.841      0.000      9.915      0.000      0.000      0.000      0.000      0.005      0.000
          OF   1256.600     -3.823      0.000      9.917      0.000      0.000      0.000      0.000      0.005      0.000
          OF   1259.800     -3.805      0.000      9.918      0.000      0.000      0.000      0.000      0.005      0.000
          OF   1263.100     -3.788      0.000      9.920      0.000      0.000      0.000      0.000      0.005      0.000
          OF   1266.400     -3.770      0.000      9.922      0.000      0.000      0.000      0.000      0.005      0.000
          OF   1269.700     -3.752      0.000      9.923      0.000      0.000      0.000      0.000      0.005      0.000
          OF   1273.000     -3.737      0.000      9.925      0.000      0.000      0.000      0.000      0.003      0.000
          OF   1276.200     -3.732      0.000      9.927      0.000      0.000      0.000      0.000      0.002      0.000
          OF   1279.500     -3.726      0.000      9.928      0.000      0.000      0.000      0.000      0.002      0.000
          OF   1282.800     -3.721      0.000      9.930      0.000      0.000      0.000      0.000      0.002      0.000
          OF   1286.100     -3.714      0.000      9.932      0.000      0.000      0.000      0.000      0.009      0.000
          OF   1289.400     -3.658      0.000      9.932      0.000      0.000      0.000      0.000      0.018      0.000
          OF   1292.600     -3.599      0.000      9.933      0.000      0.000      0.000      0.000      0.018      0.000
          OF   1295.900     -3.540      0.000      9.934      0.000      0.000      0.000      0.000      0.018      0.000
          OF   1299.200     -3.481      0.000      9.935      0.000      0.000      0.000      0.000      0.018      0.000
          OF   1302.500     -3.422      0.000      9.937      0.000      0.000      0.000      0.000      0.018      0.000
          OF   1305.800     -3.362      0.000      9.938      0.000      0.000      0.000      0.000      0.018      0.000
          OF   1309.100     -3.303      0.000      9.939      0.000      0.000      0.000      0.000      0.018      0.000
          OF   1312.300     -3.244      0.000      9.940      0.000      0.000      0.000      0.000      0.018      0.000
          OF   1315.600     -3.185      0.000      9.941      0.000      0.000      0.000      0.000      0.018      0.000
          OF   1318.900     -3.126      0.000      9.943      0.000      0.000      0.000      0.000      0.018      0.000
          OF   1322.200     -3.066      0.000      9.944      0.000      0.000      0.000      0.000      0.018      0.000
          OF   1325.500     -3.007      0.000      9.945      0.000      0.000      0.000      0.000      0.018      0.000
          OF   1328.700     -2.948      0.000      9.946      0.000      0.000      0.000      0.000      0.018      0.000
          OF   1332.000     -2.889      0.000      9.948      0.000      0.000      0.000      0.000      0.018      0.000
          OF   1335.300     -2.830      0.000      9.949      0.000      0.000      0.000      0.000      0.018      0.000
          OF   1338.600     -2.772      0.000      9.950      0.000      0.000      0.000      0.000      0.017      0.000
          OF   1341.900     -2.715      0.000      9.952      0.000      0.000      0.000      0.000      0.018      0.000
          OF   1345.100     -2.657      0.000      9.953      0.000      0.000      0.000      0.000      0.018      0.000
          OF   1348.400     -2.600      0.000      9.955      0.000      0.000      0.000      0.000      0.017      0.000
          OF   1351.700     -2.543      0.000      9.956      0.000      0.000      0.000      0.000      0.017      0.000
          OF   1355.000     -2.486      0.000      9.958      0.000      0.000      0.000      0.000      0.017      0.000
          OF   1358.300     -2.429      0.000      9.959      0.000      0.000      0.000      0.000      0.018      0.000
          OF   1361.500     -2.372      0.000      9.961      0.000      0.000      0.000      0.000      0.018      0.000
          OF   1364.800     -2.314      0.000      9.962      0.000      0.000      0.000      0.000      0.017      0.000
          OF   1368.100     -2.257      0.000      9.964      0.000      0.000      0.000      0.000      0.017      0.000
          OF   1371.400     -2.200      0.000      9.965      0.000      0.000      0.000      0.000      0.017      0.000
          OF   1374.700     -2.143      0.000      9.967      0.000      0.000      0.000      0.000      0.018      0.000
          OF   1377.900     -2.086      0.000      9.969      0.000      0.000      0.000      0.000      0.018      0.000
          OF   1381.200     -2.029      0.000      9.970      0.000      0.000      0.000      0.000      0.017      0.000
          OF   1384.500     -1.971      0.000      9.972      0.000      0.000      0.000      0.000      0.017      0.000
          OF   1387.800     -1.914      0.000      9.974      0.000      0.000      0.000      0.000      0.018      0.000
          OF   1391.100     -1.855      0.000      9.975      0.000      0.000      0.000      0.000      0.018      0.000
          OF   1394.400     -1.796      0.000      9.977      0.000      0.000      0.000      0.000      0.018      0.000
          OF   1397.600     -1.737      0.000      9.978      0.000      0.000      0.000      0.000      0.018      0.000
          OF   1400.900     -1.678      0.000      9.980      0.000      0.000      0.000      0.000      0.018      0.000
          OF   1404.200     -1.620      0.000      9.982      0.000      0.000      0.000      0.000      0.017      0.000
          OF   1407.500     -1.564      0.000      9.984      0.000      0.000      0.000      0.000      0.017      0.000
          OF   1410.800     -1.509      0.000      9.985      0.000      0.000      0.000      0.000      0.017      0.000
          OF   1414.000     -1.453      0.000      9.987      0.000      0.000      0.000      0.000      0.017      0.000
          OF   1417.300     -1.397      0.000      9.989      0.000      0.000      0.000      0.000      0.017      0.000
          OF   1420.600     -1.342      0.000      9.991      0.000      0.000      0.000      0.000      0.017      0.000
          OF   1423.900     -1.286      0.000      9.993      0.000      0.000      0.000      0.000      0.017      0.000
          OF   1427.200     -1.230      0.000      9.995      0.000      0.000      0.000      0.000      0.017      0.000
          OF   1430.400     -1.175      0.000      9.996      0.000      0.000      0.000      0.000      0.017      0.000
          OF   1433.700     -1.119      0.000      9.998      0.000      0.000      0.000      0.000      0.017      0.000
          OF   1437.000     -1.064      0.000     10.000      0.000      0.000      0.000      0.000      0.017      0.000
          OF   1440.300     -1.008      0.000     10.002      0.000      0.000      0.000      0.000      0.017      0.000
          OF   1443.600     -0.952      0.000     10.004      0.000      0.000      0.000      0.000      0.017      0.000
          OF   1446.800     -0.897      0.000     10.006      0.000      0.000      0.000      0.000      0.017      0.000
          OF   1450.100     -0.841      0.000     10.008      0.000      0.000      0.000      0.000      0.017      0.000
          OF   1453.400     -0.785      0.000     10.009      0.000      0.000      0.000      0.000      0.017      0.000
          OF   1456.700     -0.730      0.000     10.012      0.000      0.000      0.000      0.000      0.017      0.000
          OF   1460.000     -0.674      0.000     10.014      0.000      0.000      0.000      0.000      0.017      0.000
          OF   1463.300     -0.619      0.000     10.015      0.000      0.000      0.000      0.000      0.017      0.000
          OF   1466.500     -0.563      0.000     10.017      0.000      0.000      0.000      0.000      0.017      0.000
          OF   1469.800     -0.507      0.000     10.019      0.000      0.000      0.000      0.000      0.017      0.000
          OF   1473.100     -0.452      0.000     10.021      0.000      0.000      0.000      0.000      0.017      0.000
          OF   1476.400     -0.396      0.000     10.023      0.000      0.000      0.000      0.000      0.017      0.000
          OF   1479.700     -0.340      0.000     10.025      0.000      0.000      0.000      0.000      0.017      0.000
          OF   1482.900     -0.285      0.000     10.027      0.000      0.000      0.000      0.000      0.017      0.000
          OF   1486.200     -0.229      0.000     10.029      0.000      0.000      0.000      0.000      0.017      0.000
          OF   1489.500     -0.173      0.000     10.031      0.000      0.000      0.000      0.000      0.017      0.000
          OF   1492.800     -0.117      0.000     10.033      0.000      0.000      0.000      0.000      0.017      0.000
          OF   1496.100     -0.060      0.000     10.035      0.000      0.000      0.000      0.000      0.019      0.000
          IF   1499.300      0.005      0.000     10.037      0.000      0.000      0.000      0.000      0.023      0.000
          IF   1502.600      0.090      0.000     10.039      0.000      0.000      0.000      0.000      0.027      0.000
          IF   1505.900      0.184      0.000     10.041      0.000      0.000      0.000      0.000      0.033      0.000
          IF   1509.200      0.307      0.000     10.042      0.000      0.000      0.000      0.000      0.030      0.000
          IF   1512.500      0.381      0.000     10.044      0.000      0.000      0.000      0.000      0.005      0.000
          IF   1515.700      0.338      0.000     10.048      0.000      0.000      0.000      0.000     -0.003      0.000
          IF   1519.000      0.364      0.000     10.050      0.000      0.000      0.000      0.000      0.011      0.000
          IF   1522.300      0.410      0.000     10.052      0.000      0.000      0.000      0.000      0.017      0.000
          IF   1525.600      0.476      0.000     10.054      0.000      0.000      0.000      0.000      0.022      0.000
          IF   1528.900      0.553      0.000     10.056      0.000      0.000      0.000      0.000      0.024      0.000
          IF   1532.100      0.631      0.000     10.058      0.000      0.000      0.000      0.000      0.024      0.000
          IF   1535.400      0.708      0.000     10.060      0.000      0.000      0.000      0.000      0.020      0.000
          IF   1538.700      0.759      0.000     10.063      0.000      0.000      0.000      0.000      0.015      0.000
          IF   1542.000      0.805      0.000     10.065      0.000      0.000      0.000      0.000      0.014      0.000
          IF   1545.300      0.850      0.000     10.067      0.000      0.000      0.000      0.000      0.012      0.000
          IF   1548.600      0.882      0.000     10.070      0.000      0.000      0.000      0.000      0.010      0.000
          IF   1551.800      0.912      0.000     10.073      0.000      0.000      0.000      0.000      0.015      0.000
          IF   1555.100      0.979      0.000     10.074      0.000      0.000      0.000      0.000      0.022      0.000
          IF   1558.400      1.054      0.000     10.076      0.000      0.000      0.000      0.000      0.023      0.000
          IF   1561.700      1.129      0.000     10.079      0.000      0.000      0.000      0.000      0.021      0.000
          IF   1565.000      1.194      0.000     10.081      0.000      0.000      0.000      0.000      0.019      0.000
          IF   1568.200      1.254      0.000     10.083      0.000      0.000      0.000      0.000      0.019      0.000
          IF   1571.500      1.315      0.000     10.085      0.000      0.000      0.000      0.000      0.018      0.000
          IF   1574.800      1.375      0.000     10.087      0.000      0.000      0.000      0.000      0.018      0.000
          IF   1578.100      1.436      0.000     10.090      0.000      0.000      0.000      0.000      0.015      0.000
          IF   1581.400      1.477      0.000     10.092      0.000      0.000      0.000      0.000      0.012      0.000
          IF   1584.600      1.515      0.000     10.095      0.000      0.000      0.000      0.000      0.012      0.000
          IF   1587.900      1.554      0.000     10.098      0.000      0.000      0.000      0.000      0.012      0.000
          IF   1591.200      1.592      0.000     10.100      0.000      0.000      0.000      0.000      0.019      0.000
          IF   1594.500      1.682      0.000     10.102      0.000      0.000      0.000      0.000      0.019      0.000
          IF   1597.800      1.719      0.000     10.104      0.000      0.000      0.000      0.000      0.000      0.000
          IF   1601.000      1.684      0.000     10.108      0.000      0.000      0.000      0.000     -0.001      0.000
          IF   1604.300      1.716      0.000     10.110      0.000      0.000      0.000      0.000      0.014      0.000
          IF   1607.600      1.776      0.000     10.112      0.000      0.000      0.000      0.000      0.018      0.000
          IF   1610.900      1.835      0.000     10.114      0.000      0.000      0.000      0.000      0.014      0.000
          IF   1614.200      1.867      0.000     10.116      0.000      0.000      0.000      0.000      0.009      0.000
          IF   1617.500      1.898      0.000     10.119      0.000      0.000      0.000      0.000      0.011      0.000
          IF   1620.700      1.941      0.000     10.121      0.000      0.000      0.000      0.000      0.014      0.000
          IF   1624.000      1.986      0.000     10.123      0.000      0.000      0.000      0.000      0.014      0.000
          IF   1627.300      2.031      0.000     10.125      0.000      0.000      0.000      0.000      0.019      0.000
          IF   1630.600      2.113      0.000     10.127      0.000      0.000      0.000      0.000      0.025      0.000
          IF   1633.900      2.196      0.000     10.129      0.000      0.000      0.000      0.000      0.024      0.000
          IF   1637.100      2.272      0.000     10.131      0.000      0.000      0.000      0.000      0.018      0.000
          IF   1640.400      2.312      0.000     10.133      0.000      0.000      0.000      0.000      0.012      0.000
          IF   1643.700      2.352      0.000     10.136      0.000      0.000      0.000      0.000      0.012      0.000
          IF   1647.000      2.393      0.000     10.138      0.000      0.000      0.000      0.000      0.012      0.000
          IF   1650.300      2.434      0.000     10.140      0.000      0.000      0.000      0.000      0.013      0.000
          IF   1653.500      2.475      0.000     10.143      0.000      0.000      0.000      0.000      0.017      0.000
          IF   1656.800      2.547      0.000     10.145      0.000      0.000      0.000      0.000      0.026      0.000
          IF   1660.100      2.644      0.000     10.146      0.000      0.000      0.000      0.000      0.029      0.000
          IF   1663.400      2.741      0.000     10.148      0.000      0.000      0.000      0.000      0.040      0.000
          IF   1666.700      2.909      0.000     10.149      0.000      0.000      0.000      0.000      0.062      0.000
          IF   1669.900      3.146      0.000     10.149      0.000      0.000      0.000      0.000      0.040      0.000
          IF   1673.200      3.167      0.000     10.153      0.000      0.000      0.000      0.000      0.009      0.000
          IF   1676.500      3.206      0.000     10.156      0.000      0.000      0.000      0.000      0.030      0.000
          IF   1679.800      3.362      0.000     10.158      0.000      0.000      0.000      0.000      0.047      0.000
          IF   1683.100      3.517      0.000     10.160      0.000      0.000      0.000      0.000      0.044      0.000
          IF   1686.300      3.646      0.000     10.163      0.000      0.000      0.000      0.000      0.034      0.000
          IF   1689.600      3.736      0.000     10.166      0.000      0.000      0.000      0.000      0.027      0.000
          IF   1692.900      3.822      0.000     10.170      0.000      0.000      0.000      0.000      0.026      0.000
          IF   1696.200      3.905      0.000     10.174      0.000      0.000      0.000      0.000      0.025      0.000
          IF   1699.500      3.989      0.000     10.178      0.000      0.000      0.000      0.000      0.041      0.000
          IF   1702.800      4.175      0.000     10.181      0.000      0.000      0.000      0.000      0.060      0.000
          IF   1706.000      4.381      0.000     10.184      0.000      0.000      0.000      0.000      0.063      0.000
          IF   1709.300      4.587      0.000     10.187      0.000      0.000      0.000      0.000      0.058      0.000
          IF   1712.600      4.767      0.000     10.191      0.000      0.000      0.000      0.000      0.046      0.000
          IF   1715.900      4.893      0.000     10.197      0.000      0.000      0.000      0.000      0.038      0.000
          IF   1719.200      5.020      0.000     10.204      0.000      0.000      0.000      0.000      0.038      0.000
          IF   1722.400      5.142      0.000     10.211      0.000      0.000      0.000      0.000      0.038      0.000
          IF   1725.700      5.264      0.000     10.218      0.000      0.000      0.000      0.000      0.039      0.000
          IF   1729.000      5.399      0.000     10.225      0.000      0.000      0.000      0.000      0.046      0.000
          IF   1732.300      5.569      0.000     10.232      0.000      0.000      0.000      0.000      0.052      0.000
          IF   1735.600      5.739      0.000     10.239      0.000      0.000      0.000      0.000      0.056      0.000
          IF   1738.800      5.934      0.000     10.248      0.000      0.000      0.000      0.000      0.065      0.000
          IF   1742.100      6.163      0.000     10.256      0.000      0.000      0.000      0.000      0.069      0.000
          IF   1745.400      6.388      0.000     10.267      0.000      0.000      0.000      0.000      0.063      0.000
          IF   1748.700      6.576      0.000     10.280      0.000      0.000      0.000      0.000      0.048      0.000
          IF   1752.000      6.703      0.000     10.295      0.000      0.000      0.000      0.000      0.034      0.000
          IF   1755.200      6.801      0.000     10.311      0.000      0.000      0.000      0.000      0.027      0.000
          IF   1758.500      6.880      0.000     10.326      0.000      0.000      0.000      0.000      0.024      0.000
          IF   1761.800      6.959      0.000     10.340      0.000      0.000      0.000      0.000      0.038      0.000
          IF   1765.100      7.133      0.000     10.352      0.000      0.000      0.000      0.000      0.061      0.000
          IF   1768.400      7.361      0.000     10.364      0.000      0.000      0.000      0.000      0.069      0.000
          IF   1771.600      7.583      0.000     10.377      0.000      0.000      0.000      0.000      0.047      0.000
          IF   1774.900      7.669      0.000     10.395      0.000      0.000      0.000      0.000      0.026      0.000
          IF   1778.200      7.755      0.000     10.411      0.000      0.000      0.000      0.000      0.029      0.000
          IF   1781.500      7.862      0.000     10.427      0.000      0.000      0.000      0.000      0.033      0.000
          IF   1784.800      7.975      0.000     10.441      0.000      0.000      0.000      0.000      0.034      0.000
          IF   1788.100      8.088      0.000     10.457      0.000      0.000      0.000      0.000      0.034      0.000
          IF   1791.300      8.197      0.000     10.473      0.000      0.000      0.000      0.000      0.034      0.000
          IF   1794.600      8.306      0.000     10.488      0.000      0.000      0.000      0.000      0.039      0.000
          IF   1797.900      8.457      0.000     10.503      0.000      0.000      0.000      0.000      0.066      0.000
          IF   1801.200      8.741      0.000     10.520      0.000      0.000      0.000      0.000      0.106      0.000
          IF   1804.500      9.154      0.000     10.540      0.000      0.000      0.000      0.000      0.126      0.000
          IF   1805.500      9.285      0.000     10.540      0.000      0.000      0.000      0.000      0.032      0.000
          IF   1818.000      9.580      0.000     10.540      0.000      0.000      0.000      0.000      0.049      0.000
          IF   1831.000     10.540      0.000     10.540      0.000      0.000      0.000      0.000      0.074      0.000
          AS   2075.600      9.450      0.000      9.450      0.000      0.000      0.000      0.000     -0.076      0.000
          IF   2079.500      9.153      0.000      9.450      0.000      0.000      0.000      0.000     -0.046      0.000
          IF   2087.000      8.924      0.000      9.450      0.000      0.000      0.000      0.000      0.004      0.000
          IF   2095.000      9.219      0.000      9.450      0.000      0.000      0.000      0.000     -0.007      0.000
          IF   2101.000      8.825      0.000      9.450      0.000      0.000      0.000      0.000     -0.143      0.000
          IF   2106.500      7.579      0.000      9.450      0.000      0.000      0.000      0.000     -0.073      0.000
          IF   2119.000      7.513      0.000      9.450      0.000      0.000      0.000      0.000      0.000      0.000
          IF   2132.000      7.579      0.000      9.450      0.000      0.000      0.000      0.000      0.015      0.000
          IF   2147.000      7.940      0.000      9.450      0.000      0.000      0.000      0.000     -0.013      0.000
          IF   2162.000      7.185      0.000      9.450      0.000      0.000      0.000      0.000     -0.005      0.000
          IF   2172.500      7.808      0.000      9.450      0.000      0.000      0.000      0.000      0.010      0.000
          IF   2191.000      7.480      0.000      9.450      0.000      0.000      0.000      0.000     -0.001      0.000
          IF   2196.000      7.776      0.000      9.450      0.000      0.000      0.000      0.000     -0.045      0.000
          IF   2210.500      6.595      0.000      9.450      0.000      0.000      0.000      0.000     -0.123      0.000
          IF   2216.000      5.315      0.000      9.450      0.000      0.000      0.000      0.000     -0.061      0.000
          IF   2247.000      4.364      0.000      9.450      0.000      0.000      0.000      0.000     -0.024      0.000
          IF   2266.000      4.134      0.000      9.451      0.000      0.000      0.000      0.000     -0.010      0.000
          IF   2294.500      3.904      0.000      9.452      0.000      0.000      0.000      0.000     -0.009      0.000
          IF   2308.500      3.773      0.000      9.452      0.000      0.000      0.000      0.000     -0.004      0.000
          IF   2332.000      3.773      0.000      9.452      0.000      0.000      0.000      0.000     -0.008      0.000
          IF   2345.500      3.478      0.000      9.452      0.000      0.000      0.000      0.000     -0.011      0.000
          IF   2394.500      3.084      0.000      9.450      0.000      0.000      0.000      0.000     -0.017      0.000
          IF   2400.500      2.559      0.000      9.450      0.000      0.000      0.000      0.000     -0.031      0.000
          OF   2500.500     -0.164      0.000      9.453      0.000      0.000      0.000      0.000     -0.026      0.000
          OF   2504.000     -0.098      0.000      9.453      0.000      0.000      0.000      0.000     -0.010      0.000
          OF   2842.000     -3.606      0.000      9.459      0.000      0.000      0.000      0.000     -0.010      0.000
          OF   2843.000     -3.605      0.000      9.459      0.000      0.000      0.000      0.000      0.001      0.000
          OF   2890.000     -3.557      0.000      9.459      0.000      0.000      0.000      0.000      0.001      0.000
          OF   2891.000     -3.556      0.000      9.459      0.000      0.000      0.000      0.000      0.005      0.000
          OF   2938.000     -3.316      0.000      9.460      0.000      0.000      0.000      0.000      0.005      0.000
          OF   2939.000     -3.311      0.000      9.460      0.000      0.000      0.000      0.000      0.005      0.000
          OF   2986.000     -3.087      0.000      9.460      0.000      0.000      0.000      0.000      0.005      0.000
          OF   2987.000     -3.086      0.000      9.460      0.000      0.000      0.000      0.000      0.001      0.000
          OF   3034.000     -3.054      0.000      9.461      0.000      0.000      0.000      0.000      0.001      0.000
          OF   3035.000     -3.053      0.000      9.461      0.000      0.000      0.000      0.000     -0.021      0.000
          OF   3187.000     -6.248      0.000      9.463      0.000      0.000      0.000      0.000     -0.021      0.000
          OF   3188.000     -6.248      0.000      9.463      0.000      0.000      0.000      0.000      0.000      0.000
          OF   3211.000     -6.244      0.000      9.463      0.000      0.000      0.000      0.000      0.000      0.000
          OF   3212.000     -6.244      0.000      9.463      0.000      0.000      0.000      0.000      0.000      0.000
          OF   3235.000     -6.240      0.000      9.463      0.000      0.000      0.000      0.000      0.000      0.000
          OF   3236.000     -6.239      0.000      9.463      0.000      0.000      0.000      0.000      0.000      0.000
          OF   3257.000     -6.235      0.000      9.463      0.000      0.000      0.000      0.000      0.000      0.000
          OF   3258.000     -6.235      0.000      9.463      0.000      0.000      0.000      0.000      0.000      0.000
          OF   3281.000     -6.234      0.000      9.464      0.000      0.000      0.000      0.000      0.000      0.000
          OF   3282.000     -6.234      0.000      9.464      0.000      0.000      0.000      0.000      0.000      0.000
          OF   3305.000     -6.233      0.000      9.465      0.000      0.000      0.000      0.000      0.000      0.000
          OF   3306.000     -6.233      0.000      9.465      0.000      0.000      0.000      0.000      0.000      0.000
          OF   3329.000     -6.231      0.000      9.465      0.000      0.000      0.000      0.000      0.000      0.000
          OF   3330.000     -6.231      0.000      9.465      0.000      0.000      0.000      0.000      0.024      0.000
          OF   3353.000     -5.653      0.000      9.466      0.000      0.000      0.000      0.000      0.067      0.000
          IF   3474.000      3.346      0.000      9.467      0.000      0.000      0.000      0.000      0.083      0.000
          IF   3480.500      4.987      0.000      9.467      0.000      0.000      0.000      0.000      0.081      0.000
          IF   3497.000      5.216      0.000      9.467      0.000      0.000      0.000      0.000      0.003      0.000
          IF   3502.500      5.052      0.000      9.467      0.000      0.000      0.000      0.000     -0.006      0.000
          IF   3526.500      5.052      0.000      9.467      0.000      0.000      0.000      0.000     -0.041      0.000
          IF   3531.000      3.871      0.000      9.468      0.000      0.000      0.000      0.000     -0.032      0.000
          IF   3558.000      4.035      0.000      9.469      0.000      0.000      0.000      0.000     -0.010      0.000
          IF   3566.500      3.510      0.000      9.469      0.000      0.000      0.000      0.000      0.004      0.000
          IF   3610.000      4.232      0.000      9.470      0.000      0.000      0.000      0.000      0.028      0.000
          IF   3615.000      4.856      0.000      9.470      0.000      0.000      0.000      0.000     -0.004      0.000
          IF   3643.000      4.101      0.000      9.471      0.000      0.000      0.000      0.000     -0.003      0.000
          IF   3665.000      4.692      0.000      9.472      0.000      0.000      0.000      0.000      0.000      0.000
          IF   3672.000      4.101      0.000      9.472      0.000      0.000      0.000      0.000     -0.032      0.000
          IF   3784.500      0.886      0.000      9.473      0.000      0.000      0.000      0.000     -0.028      0.000
          IF   3807.500      0.361      0.000      9.474      0.000      0.000      0.000      0.000      0.047      0.000
          IF   3860.000      4.462      0.000      9.474      0.000      0.000      0.000      0.000      0.070      0.000
          IF   3865.000      4.396      0.000      9.474      0.000      0.000      0.000      0.000      0.007      0.000
          IF   3908.500      4.823      0.000      9.474      0.000      0.000      0.000      0.000      0.007      0.000
          IF   3928.500      4.856      0.000      9.474      0.000      0.000      0.000      0.000     -0.005      0.000
          IF   3934.000      4.692      0.000      9.474      0.000      0.000      0.000      0.000     -0.004      0.000
          IF   3952.000      4.757      0.000      9.474      0.000      0.000      0.000      0.000      0.007      0.000
          IF   3958.500      4.856      0.000      9.474      0.000      0.000      0.000      0.000      0.003      0.000
          IF   3977.500      4.823      0.000      9.474      0.000      0.000      0.000      0.000     -0.004      0.000
          IF   3985.000      4.757      0.000      9.474      0.000      0.000      0.000      0.000     -0.034      0.000
          IF   4007.500      3.806      0.000      9.474      0.000      0.000      0.000      0.000     -0.028      0.000
          IF   4040.500      3.215      0.000      9.475      0.000      0.000      0.000      0.000      0.024      0.000
          IF   4045.000      4.692      0.000      9.475      0.000      0.000      0.000      0.000      0.035      0.000
          IF   4086.500      4.823      0.000      9.476      0.000      0.000      0.000      0.000      0.006      0.000
          IF   4092.000      4.987      0.000      9.476      0.000      0.000      0.000      0.000     -0.002      0.000
          IF   4131.000      4.757      0.000      9.477      0.000      0.000      0.000      0.000     -0.036      0.000
          IF   4137.000      3.346      0.000      9.477      0.000      0.000      0.000      0.000      0.004      0.000
          IF   4169.000      4.921      0.000      9.477      0.000      0.000      0.000      0.000      0.040      0.000
          IF   4180.000      5.052      0.000      9.478      0.000      0.000      0.000      0.000      0.000      0.000
          IF   4222.500      4.921      0.000      9.478      0.000      0.000      0.000      0.000      0.000      0.000
          IF   4229.500      5.052      0.000      9.478      0.000      0.000      0.000      0.000     -0.002      0.000
          IF   4267.000      4.856      0.000      9.480      0.000      0.000      0.000      0.000     -0.003      0.000
          IF   4279.000      4.921      0.000      9.480      0.000      0.000      0.000      0.000     -0.003      0.000
          IF   4304.500      4.757      0.000      9.481      0.000      0.000      0.000      0.000      0.000      0.000
          IF   4312.500      4.921      0.000      9.482      0.000      0.000      0.000      0.000      0.001      0.000
[...]
                         PS# **                                                                                
                         PS# **                                                                                
                         PS# **                                                                                
                         PS# **                                                                                
                         PS# **                                                                                
                         PS# **                                                                                
                         PS# **                                                                                
                         PS# **                                                                                
                         PS# **                                                                                
                         PS# **                                                                                
                         PS# **                                                                                
                         PS# **                                                                                
                         PS# **                                                                                
                         PS# **                                                                                
                         PS# **                                                                                
                         PS# **                                                                                
                         PS# **                                                                                
                         PS# **                                                                                
                         PS# **                                                                                
                         PS# **                                                             ~ 
~         
                         PS# **                                                                                
                         PS# **                       abcdefghijklmnopqrstuvwxyz      ABCDEFGHIJKLMNOPQRSTUVWXY
                         PS# **  Z                                                          
                         PS# **                          
                         PS# **                                                      
                         PS# **                                                                            
                         PS# **                                                  
                         PS# **                                            ~                    ~           
                         PS# **                                                                                
                         PS# **                                                                                
                         PS# **                                                                                
                         PS# **              ~                                                               
                         PS# **                                                                                
                         PS# **                                                                                
                         PS# **                                                                                
                         PS# **                                                                                
                         PS# **                                                                                
                         PS# **                                                                                
                         PS# **                                                                                
                         PS# **                                                                                
                         PS# **                                                                                
                         PS# **                                                                                
                         PS# **                                                                                
                         PS# **                                                                                
                         PS# **                                                                                
                         PS# **                                                                                
                         PS# **                                                                                
                         PS# **                                                                                
                         PS# **                                                                                
                         PS# **                                                                                
                         PS# **                                                                                
                         PS# **                                                                                
                         PS# **                                                                                
                         PS# **                                                                                
                         PS# **                                                                                
                         PS# **                                                                                
                         PS# **                                                                                
                         PS# **                                                                                
                         PS# **                                                                                
                         PS# **                                                                                
                         PS# **                                                                                
                         PS# **                                                                                
                         PS# **                                                                                
                         PS# **                                                                                
                         PS# **                                                                                
                         PS# **                                                                                
                         PS# **                                                                                
                         PS# **                                                                                
                         PS# **                                                                                
                         PS# **                                                                                
                         PS# **                                                                                
                         PS# **                                                                                
                         PS# **                                                                                
                         PS# **                                                                                
                         PS# **                                                                                
                         PS# **                                                                                
                         PS# **                                                                                
                         PS# **                                                                                
                         PS# **                                                                                
                         PS# **                                                                                
                         PS# **                                                                                
                         PS# **                                                                                
                         PS# **                                                                                
                         PS# **                                                                                
                         PS# **                     PBN                                                     
                         PS# **                                                                                
                         PS# **                                                                                
                         PS# **                                                                                
                         PS# **                                                                                
                         PS# **                                                                                
                         PS# **                                                                                
                         PS# **                                                                                
                         PS# **                                                                                
                         PS# **                                                                                
                         PS# **                                                                                
                         PS# **                                                                                
                         PS# **                                                                                
                         PS# **                                                                                
                         PS# **                                                                                
                         PS# **                                                                                
                         PS# **                                                                                
                         PS# **                                                                                
                         PS# **                                                                                
                         PS# **                                                                                
                         PS# **                                                                                
                         PS# **                                                                                
                         PS# **                                                                                
                         PS# **                                                                                
                         PS# **                                                                                
                         PS# **                                                                                
                         PS# **                                                                                
                         PS# **                                                                             
                         PS# **  @   8   WHAFIS4.FOR      @ WHAFIS4    36AP`
                         PS# **  zp

                         PS# **  @y~ttE
                         PS# **  

                         PS# **  	F
                         PS# **  JX
		
                         PS# **  AJV	
                         PS# **  	LX		
                         PS# **  AM
                         PS# **  XF
                         PS# **  	^
                         PS# **  Q?=2
                         PS# **  
Z
                         PS# **  k|
                         PS# **  vM
                         PS# **  
                         PS# **  
                         PS# **  
                         PS# **  
                         PS# **  		
                         PS# **  
b
                         PS# **  IB

                         PS# **  
                         PS# **  hNjEpFB3
                         PS# **  )     qM@ FETCH.
5AA
                         PS# **  



                         PS# **  
 $
                         PS# **  
#"
                         PS# **  @
                         PS# **  	
                         PS# **  

                         PS# **  no
                         PS# **  miG"
                         PS# **  
	
                         PS# **  b'    {b@ VEG ',
                         PS# **  _	
                         PS# **  ~	
                         PS# **  #

                         PS# **  	 &
                         PS# **  #"
                         PS# **  
                         PS# **  	
                         PS# **  	
                         PS# **  jli
                         PS# **  eA$
                         PS# **  X'    }@ SHBM
                         PS# **   /<<    ~@ HIN6
                         PS# **  (&


                         PS# **  l e u      @ 
                         PS# **  AVG	
                         PS# **      @ READINN
                         PS# **  QN   @ APP"
                         PS# **  
Q15     ;@ ECHO
                         PS# **  		t1tr
                         PS# **  T	yywyt
                         PS# **  XB  @ T     
                         PS# **  @ WAVG	&
                         PS# **  |  @ HM0

                         PS# **  	.H

                         PS# **  

~
                         PS# **   ~ 

                         PS# **  X K 
  @ LOOKUP
                         PS# **  		
                         PS# **  Q
                         PS# **  l! 
	


                         PS# **      d@ SCANE'44
                         PS# **  	I

                         PS# **  UiZ
                         PS# **  _l
                         PS# **  Xn
                         PS# **  ]	

                         PS# **  
I.8
                         PS# **  f

                         PS# **  AC!L%%
                         PS# **  	
                         PS# **  >
                         PS# **  2
3
                         PS# **  I:  @ ASKFORFILESLL    
                         PS# **  
 O@ FILEERRORSL    -@ SHOWHELP
                         PS# **  L                                              
                         PS# **                                                                                
                         PS# **                                                                                
                         PS# **                                                                                
                         PS# **                                                                                
                         PS# **                                                                                
                         PS# **                                                                                
                         PS# **                                                                                
                         PS# **                                                                                
                         PS# **                                                                                
                         PS# **                                                                                
                         PS# **                                                                                
                         PS# **                                                                                
                         PS# **                                                                                
                         PS# **                                                                                
                         PS# **                                                                                
                         PS# **                                                                                
                         PS# **                                                                                
                         PS# **                                                                                
                         PS# **                                                                                
                         PS# **                                                                                
                         PS# **                                                                                
                         PS# **                                                                                
                         PS# **                                                                                
                         PS# **                                                                                
-1.000000e+00
