 WAVE HEIGHT COMPUTATIONS FOR FLOOD INSURANCE STUDIES (WHAFIS VERSION 4.0G, 08_2007)
 Executed on: Thu Apr  2 11:05:19 2020
 Input file:  C:\FEMA-TransectAnalysis\LOMR-TransectAnalysis-Kennebunkport\3_whafis\whafis4\YK-108.dat                                        
 Output file: C:\FEMA-TransectAnalysis\LOMR-TransectAnalysis-Kennebunkport\3_whafis\whafis4\YK-108.out                                        
                                                              header                                                                
                                                     THIS IS A 100-YEAR CASE
                                       THE FOLLOWING NON-DEFAULT WIND SPEEDS ARE BEING USED
                                            WINDIF  56.14  WINDOF  56.14  WINDVH  60.00
                                                             PART1 INPUT
          IE      0.000     -6.528      1.000      1.000      9.035     11.296     12.800     56.140      0.028      0.000
          OF      3.000     -6.445      0.000      9.035      0.000      0.000      0.000      0.000      0.028      0.000
          OF      4.000     -6.417      0.000      9.035      0.000      0.000      0.000      0.000      0.028      0.000
          OF      9.000     -6.279      0.000      9.036      0.000      0.000      0.000      0.000      0.028      0.000
          OF     10.000     -6.252      0.000      9.036      0.000      0.000      0.000      0.000      0.028      0.000
          OF     15.000     -6.114      0.000      9.036      0.000      0.000      0.000      0.000      0.028      0.000
          OF     16.000     -6.086      0.000      9.036      0.000      0.000      0.000      0.000      0.028      0.000
          OF     22.000     -5.920      0.000      9.037      0.000      0.000      0.000      0.000      0.028      0.000
          OF     27.000     -5.782      0.000      9.037      0.000      0.000      0.000      0.000      0.028      0.000
          OF     28.000     -5.755      0.000      9.038      0.000      0.000      0.000      0.000      0.028      0.000
          OF     39.000     -5.451      0.000      9.039      0.000      0.000      0.000      0.000      0.028      0.000
          OF     40.000     -5.424      0.000      9.039      0.000      0.000      0.000      0.000      0.028      0.000
          OF     51.000     -5.120      0.000      9.040      0.000      0.000      0.000      0.000      0.028      0.000
          OF     52.000     -5.092      0.000      9.040      0.000      0.000      0.000      0.000      0.027      0.000
          OF     61.000     -4.847      0.000      9.041      0.000      0.000      0.000      0.000      0.025      0.000
          OF     62.000     -4.840      0.000      9.041      0.000      0.000      0.000      0.000      0.007      0.000
          OF     72.200     -4.765      0.000      9.035      0.000      0.000      0.000      0.000      0.007      0.000
          OF     75.500     -4.741      0.000      9.036      0.000      0.000      0.000      0.000      0.008      0.000
          OF     78.700     -4.715      0.000      9.036      0.000      0.000      0.000      0.000      0.009      0.000
          OF     82.000     -4.684      0.000      9.037      0.000      0.000      0.000      0.000      0.010      0.000
          OF     85.300     -4.652      0.000      9.038      0.000      0.000      0.000      0.000      0.010      0.000
          OF     88.600     -4.620      0.000      9.039      0.000      0.000      0.000      0.000      0.010      0.000
          OF     91.900     -4.588      0.000      9.040      0.000      0.000      0.000      0.000      0.010      0.000
          OF     95.100     -4.556      0.000      9.041      0.000      0.000      0.000      0.000      0.010      0.000
          OF     98.400     -4.524      0.000      9.042      0.000      0.000      0.000      0.000      0.010      0.000
          OF    101.700     -4.492      0.000      9.043      0.000      0.000      0.000      0.000      0.010      0.000
          OF    105.000     -4.460      0.000      9.044      0.000      0.000      0.000      0.000      0.010      0.000
          OF    108.300     -4.428      0.000      9.045      0.000      0.000      0.000      0.000      0.010      0.000
          OF    111.500     -4.396      0.000      9.046      0.000      0.000      0.000      0.000      0.010      0.000
          OF    114.800     -4.364      0.000      9.047      0.000      0.000      0.000      0.000      0.010      0.000
          OF    118.100     -4.332      0.000      9.048      0.000      0.000      0.000      0.000      0.010      0.000
          OF    121.400     -4.300      0.000      9.049      0.000      0.000      0.000      0.000      0.010      0.000
          OF    124.700     -4.268      0.000      9.050      0.000      0.000      0.000      0.000      0.010      0.000
          OF    128.000     -4.236      0.000      9.051      0.000      0.000      0.000      0.000      0.010      0.000
          OF    131.200     -4.204      0.000      9.052      0.000      0.000      0.000      0.000      0.010      0.000
          OF    134.500     -4.172      0.000      9.053      0.000      0.000      0.000      0.000      0.010      0.000
          OF    137.800     -4.140      0.000      9.054      0.000      0.000      0.000      0.000      0.010      0.000
          OF    141.100     -4.108      0.000      9.055      0.000      0.000      0.000      0.000      0.010      0.000
          OF    144.400     -4.076      0.000      9.056      0.000      0.000      0.000      0.000      0.011      0.000
          OF    147.600     -4.038      0.000      9.057      0.000      0.000      0.000      0.000      0.016      0.000
          OF    150.900     -3.971      0.000      9.058      0.000      0.000      0.000      0.000      0.021      0.000
          OF    154.200     -3.902      0.000      9.059      0.000      0.000      0.000      0.000      0.021      0.000
          OF    157.500     -3.833      0.000      9.060      0.000      0.000      0.000      0.000      0.021      0.000
          OF    160.800     -3.764      0.000      9.061      0.000      0.000      0.000      0.000      0.021      0.000
          OF    164.000     -3.695      0.000      9.063      0.000      0.000      0.000      0.000      0.021      0.000
          OF    167.300     -3.626      0.000      9.064      0.000      0.000      0.000      0.000      0.021      0.000
          OF    170.600     -3.558      0.000      9.065      0.000      0.000      0.000      0.000      0.021      0.000
          OF    173.900     -3.489      0.000      9.066      0.000      0.000      0.000      0.000      0.021      0.000
          OF    177.200     -3.420      0.000      9.067      0.000      0.000      0.000      0.000      0.021      0.000
          OF    180.400     -3.351      0.000      9.068      0.000      0.000      0.000      0.000      0.021      0.000
          OF    183.700     -3.282      0.000      9.069      0.000      0.000      0.000      0.000      0.021      0.000
          OF    187.000     -3.214      0.000      9.070      0.000      0.000      0.000      0.000      0.021      0.000
          OF    190.300     -3.145      0.000      9.072      0.000      0.000      0.000      0.000      0.021      0.000
          OF    193.600     -3.076      0.000      9.073      0.000      0.000      0.000      0.000      0.021      0.000
          OF    196.800     -3.007      0.000      9.074      0.000      0.000      0.000      0.000      0.021      0.000
          OF    200.100     -2.938      0.000      9.076      0.000      0.000      0.000      0.000      0.021      0.000
          OF    203.400     -2.869      0.000      9.077      0.000      0.000      0.000      0.000      0.021      0.000
          OF    206.700     -2.800      0.000      9.079      0.000      0.000      0.000      0.000      0.021      0.000
          OF    210.000     -2.732      0.000      9.080      0.000      0.000      0.000      0.000      0.021      0.000
          OF    213.300     -2.663      0.000      9.082      0.000      0.000      0.000      0.000      0.021      0.000
          OF    216.500     -2.592      0.000      9.083      0.000      0.000      0.000      0.000      0.022      0.000
          OF    219.800     -2.519      0.000      9.085      0.000      0.000      0.000      0.000      0.022      0.000
          OF    223.100     -2.445      0.000      9.087      0.000      0.000      0.000      0.000      0.022      0.000
          OF    226.400     -2.371      0.000      9.088      0.000      0.000      0.000      0.000      0.022      0.000
          OF    229.700     -2.297      0.000      9.090      0.000      0.000      0.000      0.000      0.018      0.000
          OF    232.900     -2.257      0.000      9.092      0.000      0.000      0.000      0.000      0.012      0.000
          OF    236.200     -2.222      0.000      9.094      0.000      0.000      0.000      0.000      0.011      0.000
          OF    239.500     -2.187      0.000      9.096      0.000      0.000      0.000      0.000      0.011      0.000
          OF    242.800     -2.152      0.000      9.098      0.000      0.000      0.000      0.000      0.012      0.000
          OF    246.100     -2.110      0.000      9.101      0.000      0.000      0.000      0.000      0.014      0.000
          OF    249.300     -2.063      0.000      9.102      0.000      0.000      0.000      0.000      0.014      0.000
          OF    252.600     -2.017      0.000      9.104      0.000      0.000      0.000      0.000      0.014      0.000
          OF    255.900     -1.970      0.000      9.106      0.000      0.000      0.000      0.000      0.014      0.000
          OF    259.200     -1.923      0.000      9.108      0.000      0.000      0.000      0.000      0.014      0.000
          OF    262.500     -1.877      0.000      9.110      0.000      0.000      0.000      0.000      0.014      0.000
          OF    265.700     -1.830      0.000      9.111      0.000      0.000      0.000      0.000      0.014      0.000
          OF    269.000     -1.783      0.000      9.113      0.000      0.000      0.000      0.000      0.014      0.000
          OF    272.300     -1.737      0.000      9.115      0.000      0.000      0.000      0.000      0.014      0.000
          OF    275.600     -1.690      0.000      9.117      0.000      0.000      0.000      0.000      0.014      0.000
          OF    278.900     -1.643      0.000      9.118      0.000      0.000      0.000      0.000      0.014      0.000
          OF    282.200     -1.597      0.000      9.120      0.000      0.000      0.000      0.000      0.014      0.000
          OF    285.400     -1.550      0.000      9.122      0.000      0.000      0.000      0.000      0.014      0.000
          OF    288.700     -1.503      0.000      9.124      0.000      0.000      0.000      0.000      0.014      0.000
          OF    292.000     -1.457      0.000      9.126      0.000      0.000      0.000      0.000      0.014      0.000
          OF    295.300     -1.410      0.000      9.128      0.000      0.000      0.000      0.000      0.014      0.000
          OF    298.600     -1.363      0.000      9.130      0.000      0.000      0.000      0.000      0.014      0.000
          OF    301.800     -1.316      0.000      9.132      0.000      0.000      0.000      0.000      0.014      0.000
          OF    305.100     -1.269      0.000      9.133      0.000      0.000      0.000      0.000      0.017      0.000
          OF    308.400     -1.205      0.000      9.135      0.000      0.000      0.000      0.000      0.020      0.000
          OF    311.700     -1.138      0.000      9.136      0.000      0.000      0.000      0.000      0.020      0.000
          OF    315.000     -1.072      0.000      9.138      0.000      0.000      0.000      0.000      0.021      0.000
          OF    318.200     -1.005      0.000      9.140      0.000      0.000      0.000      0.000      0.021      0.000
          OF    321.500     -0.938      0.000      9.142      0.000      0.000      0.000      0.000      0.020      0.000
          OF    324.800     -0.872      0.000      9.143      0.000      0.000      0.000      0.000      0.020      0.000
          OF    328.100     -0.805      0.000      9.145      0.000      0.000      0.000      0.000      0.020      0.000
          OF    331.400     -0.738      0.000      9.147      0.000      0.000      0.000      0.000      0.021      0.000
          OF    334.600     -0.671      0.000      9.149      0.000      0.000      0.000      0.000      0.021      0.000
          OF    337.900     -0.605      0.000      9.150      0.000      0.000      0.000      0.000      0.020      0.000
          OF    341.200     -0.538      0.000      9.152      0.000      0.000      0.000      0.000      0.020      0.000
          OF    344.500     -0.471      0.000      9.154      0.000      0.000      0.000      0.000      0.020      0.000
          OF    347.800     -0.405      0.000      9.156      0.000      0.000      0.000      0.000      0.021      0.000
          OF    351.000     -0.338      0.000      9.158      0.000      0.000      0.000      0.000      0.021      0.000
          OF    354.300     -0.271      0.000      9.160      0.000      0.000      0.000      0.000      0.020      0.000
          OF    357.600     -0.204      0.000      9.162      0.000      0.000      0.000      0.000      0.020      0.000
          OF    360.900     -0.138      0.000      9.164      0.000      0.000      0.000      0.000      0.021      0.000
          OF    364.200     -0.068      0.000      9.166      0.000      0.000      0.000      0.000      0.081      0.000
          IF    367.500      0.400      0.000      9.163      0.000      0.000      0.000      0.000      0.132      0.000
          IF    370.700      0.790      0.000      9.161      0.000      0.000      0.000      0.000      0.068      0.000
          IF    374.000      0.844      0.000      9.166      0.000      0.000      0.000      0.000      0.024      0.000
          IF    377.300      0.951      0.000      9.169      0.000      0.000      0.000      0.000      0.014      0.000
          IF    380.600      0.938      0.000      9.175      0.000      0.000      0.000      0.000     -0.014      0.000
          IF    383.900      0.856      0.000      9.181      0.000      0.000      0.000      0.000     -0.027      0.000
          IF    387.100      0.765      0.000      9.186      0.000      0.000      0.000      0.000     -0.028      0.000
          IF    390.400      0.671      0.000      9.191      0.000      0.000      0.000      0.000     -0.021      0.000
          IF    393.700      0.625      0.000      9.195      0.000      0.000      0.000      0.000      0.013      0.000
          IF    397.000      0.757      0.000      9.196      0.000      0.000      0.000      0.000      0.040      0.000
          IF    400.300      0.888      0.000      9.198      0.000      0.000      0.000      0.000      0.035      0.000
          IF    403.500      0.986      0.000      9.200      0.000      0.000      0.000      0.000      0.024      0.000
          IF    406.800      1.044      0.000      9.203      0.000      0.000      0.000      0.000      0.014      0.000
          IF    410.100      1.075      0.000      9.207      0.000      0.000      0.000      0.000     -0.006      0.000
          IF    413.400      1.007      0.000      9.211      0.000      0.000      0.000      0.000     -0.040      0.000
          IF    416.700      0.811      0.000      9.216      0.000      0.000      0.000      0.000     -0.034      0.000
          IF    419.900      0.783      0.000      9.219      0.000      0.000      0.000      0.000      0.000      0.000
          IF    423.200      0.811      0.000      9.221      0.000      0.000      0.000      0.000      0.023      0.000
          IF    426.500      0.933      0.000      9.222      0.000      0.000      0.000      0.000      0.054      0.000
          IF    429.800      1.165      0.000      9.221      0.000      0.000      0.000      0.000      0.056      0.000
          IF    433.100      1.302      0.000      9.223      0.000      0.000      0.000      0.000      0.026      0.000
          IF    436.400      1.335      0.000      9.225      0.000      0.000      0.000      0.000      0.000      0.000
          IF    439.600      1.305      0.000      9.229      0.000      0.000      0.000      0.000     -0.019      0.000
          IF    442.900      1.210      0.000      9.232      0.000      0.000      0.000      0.000     -0.029      0.000
          IF    446.200      1.116      0.000      9.236      0.000      0.000      0.000      0.000     -0.013      0.000
          IF    449.500      1.125      0.000      9.238      0.000      0.000      0.000      0.000      0.008      0.000
          IF    452.800      1.168      0.000      9.240      0.000      0.000      0.000      0.000      0.040      0.000
          IF    456.000      1.385      0.000      9.239      0.000      0.000      0.000      0.000      0.097      0.000
          IF    459.300      1.800      0.000      9.237      0.000      0.000      0.000      0.000      0.110      0.000
          IF    462.600      2.113      0.000      9.236      0.000      0.000      0.000      0.000      0.026      0.000
          IF    465.900      1.969      0.000      9.242      0.000      0.000      0.000      0.000     -0.031      0.000
          IF    469.200      1.910      0.000      9.246      0.000      0.000      0.000      0.000      0.006      0.000
          IF    472.400      2.006      0.000      9.248      0.000      0.000      0.000      0.000      0.039      0.000
          IF    475.700      2.162      0.000      9.250      0.000      0.000      0.000      0.000      0.050      0.000
          IF    479.000      2.336      0.000      9.251      0.000      0.000      0.000      0.000      0.052      0.000
          IF    482.300      2.504      0.000      9.253      0.000      0.000      0.000      0.000      0.028      0.000
          IF    485.600      2.520      0.000      9.258      0.000      0.000      0.000      0.000      0.015      0.000
          IF    488.800      2.604      0.000      9.260      0.000      0.000      0.000      0.000      0.055      0.000
          IF    492.100      2.881      0.000      9.261      0.000      0.000      0.000      0.000      0.084      0.000
          IF    495.400      3.158      0.000      9.262      0.000      0.000      0.000      0.000      0.083      0.000
          IF    498.700      3.428      0.000      9.264      0.000      0.000      0.000      0.000      0.064      0.000
          IF    502.000      3.583      0.000      9.269      0.000      0.000      0.000      0.000      0.048      0.000
          IF    505.200      3.738      0.000      9.274      0.000      0.000      0.000      0.000      0.033      0.000
          IF    508.500      3.800      0.000      9.282      0.000      0.000      0.000      0.000     -0.012      0.000
          IF    511.800      3.657      0.000      9.292      0.000      0.000      0.000      0.000     -0.021      0.000
          IF    515.100      3.662      0.000      9.298      0.000      0.000      0.000      0.000      0.026      0.000
          IF    518.400      3.827      0.000      9.302      0.000      0.000      0.000      0.000      0.050      0.000
          IF    521.700      3.992      0.000      9.306      0.000      0.000      0.000      0.000      0.061      0.000
          IF    524.900      4.222      0.000      9.309      0.000      0.000      0.000      0.000      0.072      0.000
          IF    528.200      4.460      0.000      9.312      0.000      0.000      0.000      0.000      0.072      0.000
          IF    531.500      4.698      0.000      9.317      0.000      0.000      0.000      0.000      0.098      0.000
          IF    534.800      5.110      0.000      9.321      0.000      0.000      0.000      0.000      0.110      0.000
          IF    538.100      5.423      0.000      9.329      0.000      0.000      0.000      0.000      0.021      0.000
          IF    541.300      5.247      0.000      9.349      0.000      0.000      0.000      0.000     -0.035      0.000
          IF    544.600      5.193      0.000      9.363      0.000      0.000      0.000      0.000      0.003      0.000
          IF    547.900      5.264      0.000      9.373      0.000      0.000      0.000      0.000      0.021      0.000
          IF    551.200      5.328      0.000      9.381      0.000      0.000      0.000      0.000      0.028      0.000
          IF    554.500      5.448      0.000      9.388      0.000      0.000      0.000      0.000      0.043      0.000
          IF    557.700      5.604      0.000      9.395      0.000      0.000      0.000      0.000      0.023      0.000
          IF    561.000      5.597      0.000      9.405      0.000      0.000      0.000      0.000      0.003      0.000
          IF    564.300      5.622      0.000      9.413      0.000      0.000      0.000      0.000      0.018      0.000
          IF    567.600      5.717      0.000      9.419      0.000      0.000      0.000      0.000      0.024      0.000
          IF    570.900      5.778      0.000      9.425      0.000      0.000      0.000      0.000      0.042      0.000
          IF    574.100      5.987      0.000      9.430      0.000      0.000      0.000      0.000      0.019      0.000
          IF    577.400      5.902      0.000      9.439      0.000      0.000      0.000      0.000     -0.034      0.000
          IF    580.700      5.764      0.000      9.448      0.000      0.000      0.000      0.000     -0.001      0.000
          IF    584.000      5.897      0.000      9.451      0.000      0.000      0.000      0.000      0.034      0.000
          IF    587.300      5.986      0.000      9.455      0.000      0.000      0.000      0.000      0.017      0.000
          IF    590.500      6.006      0.000      9.460      0.000      0.000      0.000      0.000      0.006      0.000
          IF    593.800      6.027      0.000      9.465      0.000      0.000      0.000      0.000      0.008      0.000
          IF    597.100      6.059      0.000      9.469      0.000      0.000      0.000      0.000      0.017      0.000
          IF    600.400      6.141      0.000      9.472      0.000      0.000      0.000      0.000      0.037      0.000
          IF    603.700      6.302      0.000      9.474      0.000      0.000      0.000      0.000      0.082      0.000
          IF    607.000      6.684      0.000      9.474      0.000      0.000      0.000      0.000      0.041      0.000
          IF    610.200      6.569      0.000      9.485      0.000      0.000      0.000      0.000     -0.035      0.000
          IF    613.500      6.454      0.000      9.493      0.000      0.000      0.000      0.000      0.008      0.000
          IF    616.800      6.621      0.000      9.496      0.000      0.000      0.000      0.000      0.058      0.000
          IF    620.100      6.836      0.000      9.498      0.000      0.000      0.000      0.000      0.065      0.000
          IF    623.400      7.051      0.000      9.502      0.000      0.000      0.000      0.000      0.077      0.000
          IF    626.600      7.335      0.000      9.507      0.000      0.000      0.000      0.000      0.088      0.000
          IF    629.900      7.622      0.000      9.516      0.000      0.000      0.000      0.000      0.062      0.000
          IF    633.200      7.741      0.000      9.533      0.000      0.000      0.000      0.000      0.023      0.000
          IF    636.500      7.777      0.000      9.552      0.000      0.000      0.000      0.000      0.035      0.000
          IF    639.800      7.973      0.000      9.566      0.000      0.000      0.000      0.000      0.065      0.000
          IF    643.000      8.201      0.000      9.583      0.000      0.000      0.000      0.000      0.077      0.000
          IF    646.300      8.473      0.000      9.616      0.000      0.000      0.000      0.000      0.145      0.000
          IF    649.600      9.155      0.000      9.715      0.000      0.000      0.000      0.000      0.207      0.000
          IF    652.300      9.715      0.000      9.715      0.000      0.000      0.000      0.000      0.207      0.000
          AS    711.900      9.567      0.000      9.567      0.000      0.000      0.000      0.000     -0.952      0.000
          IF    712.500      8.996      0.000      9.567      0.000      0.000      0.000      0.000     -0.122      0.000
          IF    719.000      8.701      0.000      9.567      0.000      0.000      0.000      0.000      0.005      0.000
          IF    724.500      9.062      0.000      9.567      0.000      0.000      0.000      0.000      0.025      0.000
          IF    729.500      8.963      0.000      9.567      0.000      0.000      0.000      0.000     -0.019      0.000
          IF    733.000      8.898      0.000      9.567      0.000      0.000      0.000      0.000     -0.016      0.000
          IF    737.500      8.832      0.000      9.567      0.000      0.000      0.000      0.000      0.050      0.000
          IF    746.400      9.567      0.000      9.567      0.000      0.000      0.000      0.000      0.083      0.000
          AS    747.700      9.567      0.000      9.567      0.000      0.000      0.000      0.000     -0.079      0.000
          IF    757.000      8.832      0.000      9.567      0.000      0.000      0.000      0.000     -0.016      0.000
          IF    764.500      9.291      0.000      9.567      0.000      0.000      0.000      0.000      0.033      0.000
          IF    770.000      9.259      0.000      9.567      0.000      0.000      0.000      0.000      0.011      0.000
          IF    776.000      9.423      0.000      9.567      0.000      0.000      0.000      0.000     -0.034      0.000
          IF    785.500      8.734      0.000      9.567      0.000      0.000      0.000      0.000     -0.015      0.000
          IF    794.000      9.160      0.000      9.567      0.000      0.000      0.000      0.000      0.003      0.000
          IF    798.000      8.766      0.000      9.567      0.000      0.000      0.000      0.000     -0.023      0.000
          IF    802.500      8.963      0.000      9.567      0.000      0.000      0.000      0.000     -0.029      0.000
          IF    810.500      8.406      0.000      9.567      0.000      0.000      0.000      0.000     -0.054      0.000
          IF    817.000      8.176      0.000      9.567      0.000      0.000      0.000      0.000      0.028      0.000
          IF    823.500      8.766      0.000      9.567      0.000      0.000      0.000      0.000      0.000      0.000
          IF    836.000      8.176      0.000      9.567      0.000      0.000      0.000      0.000     -0.003      0.000
          IF    846.500      8.701      0.000      9.567      0.000      0.000      0.000      0.000      0.016      0.000
          IF    850.000      8.406      0.000      9.567      0.000      0.000      0.000      0.000     -0.023      0.000
          IF    853.500      8.537      0.000      9.567      0.000      0.000      0.000      0.000     -0.033      0.000
          IF    859.000      8.110      0.000      9.567      0.000      0.000      0.000      0.000      0.018      0.000
          IF    868.500      8.799      0.000      9.567      0.000      0.000      0.000      0.000      0.023      0.000
          IF    880.500      8.602      0.000      9.567      0.000      0.000      0.000      0.000     -0.025      0.000
          IF    888.000      8.307      0.000      9.567      0.000      0.000      0.000      0.000     -0.059      0.000
          IF    890.000      8.045      0.000      9.567      0.000      0.000      0.000      0.000     -0.007      0.000
          IF    893.000      8.274      0.000      9.567      0.000      0.000      0.000      0.000      0.043      0.000
          IF    900.000      8.471      0.000      9.567      0.000      0.000      0.000      0.000     -0.022      0.000
          IF    909.500      7.913      0.000      9.567      0.000      0.000      0.000      0.000     -0.012      0.000
          IF    919.000      8.241      0.000      9.567      0.000      0.000      0.000      0.000      0.011      0.000
          IF    924.500      8.077      0.000      9.567      0.000      0.000      0.000      0.000      0.000      0.000
          IF    927.000      8.241      0.000      9.567      0.000      0.000      0.000      0.000      0.015      0.000
          IF    931.000      8.176      0.000      9.567      0.000      0.000      0.000      0.000      0.004      0.000
          IF    935.500      8.274      0.000      9.567      0.000      0.000      0.000      0.000     -0.017      0.000
          IF    944.500      7.943      0.000      9.567      0.000      0.000      0.000      0.000      0.004      0.000
          IF    960.500      8.373      0.000      9.567      0.000      0.000      0.000      0.000      0.008      0.000
          IF    972.500      8.176      0.000      9.567      0.000      0.000      0.000      0.000      0.012      0.000
          IF    979.500      8.602      0.000      9.567      0.000      0.000      0.000      0.000      0.038      0.000
          IF    984.500      8.635      0.000      9.567      0.000      0.000      0.000      0.000     -0.023      0.000
          IF    988.000      8.406      0.000      9.567      0.000      0.000      0.000      0.000     -0.023      0.000
          IF    993.000      8.438      0.000      9.567      0.000      0.000      0.000      0.000     -0.006      0.000
          IF    998.500      8.340      0.000      9.567      0.000      0.000      0.000      0.000      0.000      0.000
          IF   1004.000      8.438      0.000      9.567      0.000      0.000      0.000      0.000     -0.003      0.000
          IF   1011.000      8.307      0.000      9.567      0.000      0.000      0.000      0.000      0.016      0.000
          IF   1018.500      8.668      0.000      9.567      0.000      0.000      0.000      0.000      0.010      0.000
          IF   1024.000      8.438      0.000      9.567      0.000      0.000      0.000      0.000     -0.025      0.000
          IF   1029.000      8.406      0.000      9.567      0.000      0.000      0.000      0.000     -0.024      0.000
          IF   1035.000      8.176      0.000      9.567      0.000      0.000      0.000      0.000      0.024      0.000
          IF   1042.500      8.734      0.000      9.567      0.000      0.000      0.000      0.000      0.004      0.000
          IF   1050.500      8.241      0.000      9.567      0.000      0.000      0.000      0.000     -0.033      0.000
          IF   1056.500      8.274      0.000      9.567      0.000      0.000      0.000      0.000      0.018      0.000
          IF   1063.500      8.471      0.000      9.567      0.000      0.000      0.000      0.000      0.009      0.000
          IF   1072.000      8.406      0.000      9.567      0.000      0.000      0.000      0.000      0.012      0.000
          IF   1080.000      8.668      0.000      9.567      0.000      0.000      0.000      0.000      0.021      0.000
          IF   1086.000      8.701      0.000      9.567      0.000      0.000      0.000      0.000      0.008      0.000
          IF   1092.000      8.766      0.000      9.567      0.000      0.000      0.000      0.000     -0.039      0.000
          IF   1106.000      7.913      0.000      9.567      0.000      0.000      0.000      0.000      0.014      0.000
          IF   1118.500      9.150      0.000      9.567      0.000      0.000      0.000      0.000      0.056      0.000
          IF   1124.000      8.921      0.000      9.567      0.000      0.000      0.000      0.000      0.004      0.000
          IF   1137.500      9.216      0.000      9.567      0.000      0.000      0.000      0.000     -0.051      0.000
          IF   1149.500      7.618      0.000      9.567      0.000      0.000      0.000      0.000      0.008      0.000
          IF   1158.500      9.390      0.000      9.567      0.000      0.000      0.000      0.000      0.050      0.000
          IF   1172.500      8.766      0.000      9.567      0.000      0.000      0.000      0.000     -0.025      0.000
          IF   1183.500      8.763      0.000      9.567      0.000      0.000      0.000      0.000      0.049      0.000
          IF   1188.900      9.567      0.000      9.567      0.000      0.000      0.000      0.000      0.149      0.000
          AS   1190.100      9.567      0.000      9.567      0.000      0.000      0.000      0.000     -0.147      0.000
          IF   1192.000      9.288      0.000      9.567      0.000      0.000      0.000      0.000      0.000      0.000
          IF   1198.600      9.567      0.000      9.567      0.000      0.000      0.000      0.000      0.042      0.000
          AS   1199.400      9.567      0.000      9.567      0.000      0.000      0.000      0.000     -0.041      0.000
          IF   1207.000      9.255      0.000      9.567      0.000      0.000      0.000      0.000     -0.009      0.000
          IF   1216.500      9.419      0.000      9.567      0.000      0.000      0.000      0.000     -0.029      0.000
          IF   1226.500      8.698      0.000      9.567      0.000      0.000      0.000      0.000     -0.027      0.000
          IF   1231.000      9.029      0.000      9.567      0.000      0.000      0.000      0.000      0.010      0.000
          IF   1236.500      8.799      0.000      9.567      0.000      0.000      0.000      0.000      0.003      0.000
          IF   1241.500      9.062      0.000      9.567      0.000      0.000      0.000      0.000      0.038      0.000
          IF   1248.500      9.259      0.000      9.567      0.000      0.000      0.000      0.000     -0.002      0.000
          IF   1261.500      9.029      0.000      9.567      0.000      0.000      0.000      0.000     -0.008      0.000
          IF   1272.500      9.062      0.000      9.567      0.000      0.000      0.000      0.000      0.014      0.000
          IF   1284.500      9.357      0.000      9.567      0.000      0.000      0.000      0.000      0.000      0.000
          IF   1299.500      9.055      0.000      9.566      0.000      0.000      0.000      0.000      0.001      0.000
          IF   1306.000      9.383      0.000      9.566      0.000      0.000      0.000      0.000      0.000      0.000
          IF   1328.000      9.062      0.000      9.566      0.000      0.000      0.000      0.000     -0.002      0.000
          IF   1350.000      9.314      0.000      9.566      0.000      0.000      0.000      0.000     -0.020      0.000
          IF   1363.000      8.373      0.000      9.565      0.000      0.000      0.000      0.000     -0.046      0.000
          IF   1374.000      8.209      0.000      9.565      0.000      0.000      0.000      0.000      0.022      0.000
          IF   1379.500      8.734      0.000      9.565      0.000      0.000      0.000      0.000      0.090      0.000
          IF   1386.000      9.291      0.000      9.565      0.000      0.000      0.000      0.000     -0.044      0.000
          IF   1391.500      8.209      0.000      9.565      0.000      0.000      0.000      0.000     -0.045      0.000
          IF   1400.000      8.668      0.000      9.564      0.000      0.000      0.000      0.000      0.039      0.000
          IF   1418.500      9.259      0.000      9.564      0.000      0.000      0.000      0.000     -0.007      0.000
          IF   1431.500      8.435      0.000      9.563      0.000      0.000      0.000      0.000     -0.077      0.000
          IF   1436.000      7.910      0.000      9.563      0.000      0.000      0.000      0.000     -0.077      0.000
          IF   1443.000      7.549      0.000      9.563      0.000      0.000      0.000      0.000     -0.030      0.000
          IF   1455.500      7.320      0.000      9.563      0.000      0.000      0.000      0.000     -0.003      0.000
          IF   1466.500      7.484      0.000      9.562      0.000      0.000      0.000      0.000     -0.058      0.000
          IF   1480.000      5.909      0.000      9.562      0.000      0.000      0.000      0.000     -0.040      0.000
          IF   1492.000      6.463      0.000      9.562      0.000      0.000      0.000      0.000      0.033      0.000
          IF   1496.000      6.437      0.000      9.561      0.000      0.000      0.000      0.000      0.026      0.000
          IF   1501.000      6.696      0.000      9.561      0.000      0.000      0.000      0.000      0.016      0.000
          IF   1504.000      6.568      0.000      9.561      0.000      0.000      0.000      0.000      0.049      0.000
          IF   1513.000      7.290      0.000      9.561      0.000      0.000      0.000      0.000     -0.017      0.000
          IF   1523.500      6.240      0.000      9.561      0.000      0.000      0.000      0.000     -0.049      0.000
          IF   1530.500      6.437      0.000      9.561      0.000      0.000      0.000      0.000      0.002      0.000
          IF   1538.000      6.273      0.000      9.561      0.000      0.000      0.000      0.000      0.029      0.000
          IF   1547.500      6.929      0.000      9.561      0.000      0.000      0.000      0.000      0.094      0.000
          IF   1554.500      7.815      0.000      9.562      0.000      0.000      0.000      0.000      0.002      0.000
          IF   1560.500      6.962      0.000      9.562      0.000      0.000      0.000      0.000     -0.090      0.000
          IF   1568.000      6.601      0.000      9.562      0.000      0.000      0.000      0.000      0.079      0.000
          IF   1573.000      7.946      0.000      9.562      0.000      0.000      0.000      0.000      0.148      0.000
          IF   1581.500      8.602      0.000      9.562      0.000      0.000      0.000      0.000      0.002      0.000
          IF   1592.500      7.979      0.000      9.562      0.000      0.000      0.000      0.000     -0.080      0.000
          IF   1604.000      6.798      0.000      9.562      0.000      0.000      0.000      0.000     -0.071      0.000
          IF   1616.500      6.273      0.000      9.562      0.000      0.000      0.000      0.000     -0.054      0.000
          IF   1626.500      5.584      0.000      9.562      0.000      0.000      0.000      0.000      0.044      0.000
          IF   1635.000      7.093      0.000      9.562      0.000      0.000      0.000      0.000      0.035      0.000
          IF   1641.500      6.109      0.000      9.562      0.000      0.000      0.000      0.000     -0.108      0.000
          IF   1648.000      5.682      0.000      9.562      0.000      0.000      0.000      0.000      0.097      0.000
          IF   1653.000      7.221      0.000      9.562      0.000      0.000      0.000      0.000      0.074      0.000
          IF   1662.500      6.762      0.000      9.563      0.000      0.000      0.000      0.000     -0.056      0.000
          IF   1677.500      5.843      0.000      9.563      0.000      0.000      0.000      0.000     -0.039      0.000
          IF   1685.000      5.876      0.000      9.563      0.000      0.000      0.000      0.000      0.024      0.000
          IF   1691.000      6.171      0.000      9.563      0.000      0.000      0.000      0.000      0.039      0.000
          IF   1698.500      6.401      0.000      9.563      0.000      0.000      0.000      0.000     -0.016      0.000
          IF   1703.000      5.974      0.000      9.563      0.000      0.000      0.000      0.000     -0.024      0.000
          IF   1708.000      6.171      0.000      9.563      0.000      0.000      0.000      0.000     -0.004      0.000
          IF   1718.000      5.909      0.000      9.563      0.000      0.000      0.000      0.000     -0.037      0.000
          IF   1727.500      5.450      0.000      9.564      0.000      0.000      0.000      0.000     -0.024      0.000
          IF   1735.500      5.482      0.000      9.564      0.000      0.000      0.000      0.000      0.009      0.000
          IF   1741.500      5.581      0.000      9.564      0.000      0.000      0.000      0.000      0.018      0.000
          IF   1746.500      5.679      0.000      9.564      0.000      0.000      0.000      0.000     -0.026      0.000
          IF   1751.500      5.318      0.000      9.564      0.000      0.000      0.000      0.000     -0.033      0.000
          IF   1755.500      5.384      0.000      9.565      0.000      0.000      0.000      0.000      0.040      0.000
          IF   1759.000      5.617      0.000      9.565      0.000      0.000      0.000      0.000      0.006      0.000
          IF   1766.500      5.453      0.000      9.565      0.000      0.000      0.000      0.000     -0.012      0.000
          IF   1778.000      5.387      0.000      9.566      0.000      0.000      0.000      0.000      0.009      0.000
          IF   1785.000      5.617      0.000      9.566      0.000      0.000      0.000      0.000      0.025      0.000
          IF   1790.000      5.682      0.000      9.566      0.000      0.000      0.000      0.000     -0.009      0.000
          IF   1796.500      5.518      0.000      9.566      0.000      0.000      0.000      0.000     -0.033      0.000
          IF   1802.000      5.289      0.000      9.566      0.000      0.000      0.000      0.000     -0.038      0.000
          IF   1806.000      5.157      0.000      9.567      0.000      0.000      0.000      0.000     -0.004      0.000
          IF   1809.500      5.256      0.000      9.567      0.000      0.000      0.000      0.000      0.007      0.000
          IF   1815.500      5.223      0.000      9.567      0.000      0.000      0.000      0.000     -0.034      0.000
          IF   1823.000      4.797      0.000      9.567      0.000      0.000      0.000      0.000     -0.036      0.000
          IF   1829.000      4.731      0.000      9.568      0.000      0.000      0.000      0.000     -0.011      0.000
          IF   1835.000      4.665      0.000      9.568      0.000      0.000      0.000      0.000     -0.012      0.000
          IF   1842.500      4.567      0.000      9.568      0.000      0.000      0.000      0.000     -0.004      0.000
          IF   1850.000      4.600      0.000      9.568      0.000      0.000      0.000      0.000      0.023      0.000
          IF   1856.500      4.895      0.000      9.568      0.000      0.000      0.000      0.000      0.012      0.000
          IF   1861.000      4.731      0.000      9.569      0.000      0.000      0.000      0.000     -0.083      0.000
          IF   1864.000      4.272      0.000      9.569      0.000      0.000      0.000      0.000     -0.037      0.000
          IF   1869.000      4.436      0.000      9.569      0.000      0.000      0.000      0.000      0.019      0.000
          IF   1876.000      4.501      0.000      9.569      0.000      0.000      0.000      0.000      0.017      0.000
          IF   1882.500      4.665      0.000      9.569      0.000      0.000      0.000      0.000     -0.019      0.000
          IF   1892.000      4.203      0.000      9.570      0.000      0.000      0.000      0.000     -0.014      0.000
          IF   1897.000      4.465      0.000      9.570      0.000      0.000      0.000      0.000      0.008      0.000
          IF   1904.500      4.301      0.000      9.570      0.000      0.000      0.000      0.000      0.005      0.000
          IF   1911.000      4.531      0.000      9.570      0.000      0.000      0.000      0.000     -0.004      0.000
          IF   1920.000      4.236      0.000      9.571      0.000      0.000      0.000      0.000     -0.016      0.000
          IF   1923.500      4.334      0.000      9.571      0.000      0.000      0.000      0.000     -0.036      0.000
          IF   1931.000      3.842      0.000      9.571      0.000      0.000      0.000      0.000     -0.025      0.000
          IF   1938.000      3.973      0.000      9.571      0.000      0.000      0.000      0.000      0.013      0.000
          IF   1946.500      4.039      0.000      9.571      0.000      0.000      0.000      0.000     -0.062      0.000
          IF   1958.000      2.726      0.000      9.571      0.000      0.000      0.000      0.000     -0.032      0.000
          IF   1967.000      3.382      0.000      9.572      0.000      0.000      0.000      0.000      0.032      0.000
          IF   1972.500      3.186      0.000      9.572      0.000      0.000      0.000      0.000      0.047      0.000
          IF   1979.000      3.940      0.000      9.572      0.000      0.000      0.000      0.000      0.114      0.000
          IF   1984.000      4.498      0.000      9.572      0.000      0.000      0.000      0.000     -0.033      0.000
          IF   1990.000      3.579      0.000      9.572      0.000      0.000      0.000      0.000     -0.044      0.000
          IF   2005.000      3.579      0.000      9.573      0.000      0.000      0.000      0.000      0.019      0.000
          IF   2009.500      3.940      0.000      9.573      0.000      0.000      0.000      0.000      0.052      0.000
          IF   2016.500      4.173      0.000      9.573      0.000      0.000      0.000      0.000      0.000      0.000
          IF   2022.000      3.944      0.000      9.573      0.000      0.000      0.000      0.000     -0.016      0.000
          IF   2026.500      4.009      0.000      9.573      0.000      0.000      0.000      0.000      0.054      0.000
          IF   2035.500      4.665      0.000      9.574      0.000      0.000      0.000      0.000     -0.012      0.000
          IF   2042.500      3.812      0.000      9.574      0.000      0.000      0.000      0.000     -0.039      0.000
          IF   2048.000      4.173      0.000      9.574      0.000      0.000      0.000      0.000      0.089      0.000
          IF   2055.000      4.928      0.000      9.574      0.000      0.000      0.000      0.000      0.022      0.000
          IF   2064.500      4.534      0.000      9.575      0.000      0.000      0.000      0.000     -0.031      0.000
          IF   2078.500      4.206      0.000      9.575      0.000      0.000      0.000      0.000      0.005      0.000
          IF   2092.500      4.665      0.000      9.576      0.000      0.000      0.000      0.000      0.003      0.000
          IF   2103.000      4.272      0.000      9.576      0.000      0.000      0.000      0.000     -0.009      0.000
          IF   2114.500      4.465      0.000      9.576      0.000      0.000      0.000      0.000      0.004      0.000
          IF   2126.500      4.367      0.000      9.577      0.000      0.000      0.000      0.000      0.010      0.000
          IF   2138.000      4.695      0.000      9.577      0.000      0.000      0.000      0.000     -0.009      0.000
          IF   2147.500      4.170      0.000      9.578      0.000      0.000      0.000      0.000     -0.012      0.000
          IF   2160.000      4.432      0.000      9.578      0.000      0.000      0.000      0.000      0.005      0.000
          IF   2174.000      4.301      0.000      9.579      0.000      0.000      0.000      0.000      0.003      0.000
          IF   2182.500      4.498      0.000      9.579      0.000      0.000      0.000      0.000      0.017      0.000
          IF   2191.500      4.596      0.000      9.580      0.000      0.000      0.000      0.000      0.009      0.000
          IF   2205.000      4.695      0.000      9.580      0.000      0.000      0.000      0.000     -0.015      0.000
          IF   2223.000      4.137      0.000      9.581      0.000      0.000      0.000      0.000     -0.002      0.000
          IF   2236.000      4.629      0.000      9.582      0.000      0.000      0.000      0.000      0.024      0.000
          IF   2242.500      4.596      0.000      9.582      0.000      0.000      0.000      0.000      0.000      0.000
          IF   2249.500      4.629      0.000      9.582      0.000      0.000      0.000      0.000      0.000      0.000
          IF   2256.500      4.596      0.000      9.583      0.000      0.000      0.000      0.000     -0.025      0.000
          IF   2265.500      4.236      0.000      9.583      0.000      0.000      0.000      0.000     -0.009      0.000
          IF   2282.500      4.370      0.000      9.584      0.000      0.000      0.000      0.000      0.007      0.000
          IF   2299.000      4.469      0.000      9.584      0.000      0.000      0.000      0.000      0.014      0.000
          IF   2306.500      4.698      0.000      9.584      0.000      0.000      0.000      0.000      0.014      0.000
          IF   2313.000      4.665      0.000      9.585      0.000      0.000      0.000      0.000     -0.039      0.000
          IF   2320.000      4.173      0.000      9.585      0.000      0.000      0.000      0.000     -0.051      0.000
          IF   2326.000      4.009      0.000      9.585      0.000      0.000      0.000      0.000     -0.049      0.000
          IF   2334.000      3.484      0.000      9.585      0.000      0.000      0.000      0.000      0.019      0.000
          IF   2345.000      4.367      0.000      9.586      0.000      0.000      0.000      0.000      0.054      0.000
          IF   2353.500      4.531      0.000      9.586      0.000      0.000      0.000      0.000     -0.006      0.000
          IF   2361.000      4.268      0.000      9.586      0.000      0.000      0.000      0.000     -0.027      0.000
          IF   2370.500      4.071      0.000      9.586      0.000      0.000      0.000      0.000     -0.030      0.000
          IF   2379.500      3.711      0.000      9.587      0.000      0.000      0.000      0.000     -0.029      0.000
          IF   2388.500      3.547      0.000      9.587      0.000      0.000      0.000      0.000      0.014      0.000
          IF   2398.500      3.973      0.000      9.587      0.000      0.000      0.000      0.000      0.023      0.000
          IF   2405.500      3.940      0.000      9.587      0.000      0.000      0.000      0.000     -0.005      0.000
          IF   2412.500      3.908      0.000      9.588      0.000      0.000      0.000      0.000     -0.024      0.000
          IF   2422.000      3.547      0.000      9.588      0.000      0.000      0.000      0.000     -0.006      0.000
          IF   2428.500      3.809      0.000      9.588      0.000      0.000      0.000      0.000     -0.069      0.000
          IF   2439.500      2.333      0.000      9.589      0.000      0.000      0.000      0.000     -0.043      0.000
          IF   2446.000      3.055      0.000      9.589      0.000      0.000      0.000      0.000      0.061      0.000
          IF   2453.500      3.186      0.000      9.589      0.000      0.000      0.000      0.000      0.027      0.000
          IF   2460.500      3.448      0.000      9.589      0.000      0.000      0.000      0.000      0.026      0.000
          IF   2466.000      3.514      0.000      9.589      0.000      0.000      0.000      0.000      0.059      0.000
          IF   2471.000      4.071      0.000      9.589      0.000      0.000      0.000      0.000     -0.003      0.000
          IF   2478.000      3.481      0.000      9.590      0.000      0.000      0.000      0.000     -0.004      0.000
          IF   2487.500      4.006      0.000      9.590      0.000      0.000      0.000      0.000      0.027      0.000
          IF   2495.000      3.940      0.000      9.590      0.000      0.000      0.000      0.000      0.000      0.000
          IF   2502.000      4.006      0.000      9.590      0.000      0.000      0.000      0.000     -0.007      0.000
          IF   2510.000      3.842      0.000      9.590      0.000      0.000      0.000      0.000     -0.139      0.000
          IF   2518.000      1.775      0.000      9.591      0.000      0.000      0.000      0.000     -0.038      0.000
          IF   2525.500      3.251      0.000      9.591      0.000      0.000      0.000      0.000      0.115      0.000
          IF   2532.500      3.448      0.000      9.591      0.000      0.000      0.000      0.000      0.038      0.000
          IF   2541.000      3.845      0.000      9.591      0.000      0.000      0.000      0.000     -0.002      0.000
          IF   2549.500      3.419      0.000      9.592      0.000      0.000      0.000      0.000     -0.031      0.000
          IF   2557.000      3.353      0.000      9.592      0.000      0.000      0.000      0.000      0.004      0.000
          IF   2565.500      3.481      0.000      9.592      0.000      0.000      0.000      0.000      0.000      0.000
          IF   2575.500      3.350      0.000      9.592      0.000      0.000      0.000      0.000      0.028      0.000
          IF   2586.500      4.071      0.000      9.592      0.000      0.000      0.000      0.000      0.032      0.000
          IF   2593.000      3.908      0.000      9.592      0.000      0.000      0.000      0.000     -0.062      0.000
          IF   2596.000      3.481      0.000      9.592      0.000      0.000      0.000      0.000     -0.036      0.000
          OF   2825.000     -4.342      0.000      9.595      0.000      0.000      0.000      0.000     -0.034      0.000
          OF   2826.000     -4.342      0.000      9.595      0.000      0.000      0.000      0.000      0.000      0.000
          OF   2837.000     -4.341      0.000      9.595      0.000      0.000      0.000      0.000      0.000      0.000
          OF   2838.000     -4.341      0.000      9.595      0.000      0.000      0.000      0.000      0.000      0.000
          OF   2849.000     -4.340      0.000      9.595      0.000      0.000      0.000      0.000      0.000      0.000
          OF   2850.000     -4.340      0.000      9.595      0.000      0.000      0.000      0.000      0.000      0.000
          OF   2861.000     -4.340      0.000      9.595      0.000      0.000      0.000      0.000      0.000      0.000
          OF   2862.000     -4.340      0.000      9.595      0.000      0.000      0.000      0.000      0.000      0.000
          OF   2873.000     -4.339      0.000      9.595      0.000      0.000      0.000      0.000      0.000      0.000
          OF   2874.000     -4.339      0.000      9.595      0.000      0.000      0.000      0.000      0.000      0.000
          OF   2885.000     -4.339      0.000      9.595      0.000      0.000      0.000      0.000      0.000      0.000
          OF   2886.000     -4.339      0.000      9.595      0.000      0.000      0.000      0.000      0.000      0.000
          OF   2897.000     -4.338      0.000      9.595      0.000      0.000      0.000      0.000      0.000      0.000
          OF   2898.000     -4.338      0.000      9.595      0.000      0.000      0.000      0.000      0.000      0.000
          OF   2909.000     -4.338      0.000      9.595      0.000      0.000      0.000      0.000      0.000      0.000
          OF   2910.000     -4.337      0.000      9.595      0.000      0.000      0.000      0.000      0.000      0.000
          OF   2921.000     -4.337      0.000      9.595      0.000      0.000      0.000      0.000      0.000      0.000
          OF   2922.000     -4.337      0.000      9.595      0.000      0.000      0.000      0.000      0.000      0.000
          OF   2933.000     -4.336      0.000      9.595      0.000      0.000      0.000      0.000      0.000      0.000
          OF   2934.000     -4.336      0.000      9.596      0.000      0.000      0.000      0.000      0.000      0.000
          OF   2945.000     -4.336      0.000      9.596      0.000      0.000      0.000      0.000      0.000      0.000
          OF   2946.000     -4.336      0.000      9.596      0.000      0.000      0.000      0.000      0.000      0.000
          OF   2957.000     -4.335      0.000      9.596      0.000      0.000      0.000      0.000      0.000      0.000
          OF   2958.000     -4.335      0.000      9.596      0.000      0.000      0.000      0.000      0.000      0.000
          OF   2969.000     -4.335      0.000      9.596      0.000      0.000      0.000      0.000      0.000      0.000
          OF   2970.000     -4.334      0.000      9.596      0.000      0.000      0.000      0.000      0.000      0.000
          OF   2981.000     -4.334      0.000      9.596      0.000      0.000      0.000      0.000      0.000      0.000
          OF   2982.000     -4.334      0.000      9.596      0.000      0.000      0.000      0.000      0.000      0.000
          OF   2993.000     -4.333      0.000      9.596      0.000      0.000      0.000      0.000      0.000      0.000
          OF   2994.000     -4.333      0.000      9.596      0.000      0.000      0.000      0.000      0.000      0.000
          OF   3005.000     -4.333      0.000      9.596      0.000      0.000      0.000      0.000      0.000      0.000
          OF   3006.000     -4.333      0.000      9.596      0.000      0.000      0.000      0.000      0.000      0.000
          OF   3017.000     -4.332      0.000      9.597      0.000      0.000      0.000      0.000      0.000      0.000
          OF   3018.000     -4.332      0.000      9.597      0.000      0.000      0.000      0.000      0.000      0.000
          OF   3066.000     -4.332      0.000      9.597      0.000      0.000      0.000      0.000      0.000      0.000
          OF   3067.000     -4.332      0.000      9.597      0.000      0.000      0.000      0.000      0.020      0.000
          OF   3078.000     -4.090      0.000      9.597      0.000      0.000      0.000      0.000      0.022      0.000
          OF   3079.000     -4.068      0.000      9.597      0.000      0.000      0.000      0.000      0.023      0.000
          OF   3090.000     -3.814      0.000      9.597      0.000      0.000      0.000      0.000      0.023      0.000
          OF   3091.000     -3.791      0.000      9.597      0.000      0.000      0.000      0.000      0.023      0.000
          OF   3102.000     -3.538      0.000      9.597      0.000      0.000      0.000      0.000      0.023      0.000
          OF   3103.000     -3.515      0.000      9.597      0.000      0.000      0.000      0.000      0.023      0.000
          OF   3115.000     -3.239      0.000      9.598      0.000      0.000      0.000      0.000      0.023      0.000
          OF   3126.000     -2.986      0.000      9.598      0.000      0.000      0.000      0.000      0.023      0.000
          OF   3135.000     -2.779      0.000      9.598      0.000      0.000      0.000      0.000      0.023      0.000
          OF   3142.000     -2.618      0.000      9.598      0.000      0.000      0.000      0.000      0.023      0.000
          OF   3153.000     -2.365      0.000      9.598      0.000      0.000      0.000      0.000      0.023      0.000
          OF   3223.000     -0.754      0.000      9.600      0.000      0.000      0.000      0.000      0.071      0.000
          IF   3256.000      4.948      0.000      9.600      0.000      0.000      0.000      0.000      0.161      0.000
          IF   3259.500      5.111      0.000      9.600      0.000      0.000      0.000      0.000     -0.044      0.000
          IF   3264.000      4.593      0.000      9.600      0.000      0.000      0.000      0.000      0.000      0.000
          IF   3267.500      5.111      0.000      9.600      0.000      0.000      0.000      0.000     -0.045      0.000
          IF   3273.500      4.167      0.000      9.601      0.000      0.000      0.000      0.000     -0.033      0.000
          IF   3290.000      4.364      0.000      9.601      0.000      0.000      0.000      0.000      0.030      0.000
          IF   3309.000      5.236      0.000      9.601      0.000      0.000      0.000      0.000      0.013      0.000
          IF   3311.000      4.626      0.000      9.601      0.000      0.000      0.000      0.000     -0.095      0.000
          IF   3321.000      4.101      0.000      9.602      0.000      0.000      0.000      0.000     -0.010      0.000
          IF   3330.000      4.432      0.000      9.602      0.000      0.000      0.000      0.000      0.042      0.000
          IF   3334.500      4.662      0.000      9.602      0.000      0.000      0.000      0.000     -0.004      0.000
          IF   3344.500      4.367      0.000      9.602      0.000      0.000      0.000      0.000     -0.006      0.000
          IF   3355.000      4.531      0.000      9.602      0.000      0.000      0.000      0.000      0.031      0.000
          IF   3361.500      4.892      0.000      9.602      0.000      0.000      0.000      0.000      0.027      0.000
          IF   3366.000      4.826      0.000      9.603      0.000      0.000      0.000      0.000     -0.004      0.000
          IF   3369.000      4.859      0.000      9.603      0.000      0.000      0.000      0.000     -0.075      0.000
          IF   3373.000      4.301      0.000      9.603      0.000      0.000      0.000      0.000     -0.073      0.000
          IF   3378.000      4.203      0.000      9.603      0.000      0.000      0.000      0.000     -0.008      0.000
          IF   3389.500      4.170      0.000      9.603      0.000      0.000      0.000      0.000      0.004      0.000
          IF   3394.000      4.268      0.000      9.603      0.000      0.000      0.000      0.000     -0.033      0.000
          IF   3399.500      3.842      0.000      9.603      0.000      0.000      0.000      0.000     -0.059      0.000
          IF   3404.000      3.678      0.000      9.604      0.000      0.000      0.000      0.000     -0.038      0.000
          IF   3409.000      3.481      0.000      9.604      0.000      0.000      0.000      0.000      0.006      0.000
          IF   3420.000      3.773      0.000      9.604      0.000      0.000      0.000      0.000      0.042      0.000
          IF   3424.500      4.134      0.000      9.604      0.000      0.000      0.000      0.000      0.021      0.000
          IF   3429.500      3.970      0.000      9.604      0.000      0.000      0.000      0.000     -0.034      0.000
          IF   3438.000      3.674      0.000      9.604      0.000      0.000      0.000      0.000      0.090      0.000
          IF   3447.000      5.541      0.000      9.604      0.000      0.000      0.000      0.000      0.030      0.000
          IF   3461.000      4.364      0.000      9.605      0.000      0.000      0.000      0.000     -0.064      0.000
          IF   3470.000      4.068      0.000      9.605      0.000      0.000      0.000      0.000     -0.010      0.000
          IF   3483.500      4.134      0.000      9.605      0.000      0.000      0.000      0.000      0.002      0.000
          IF   3492.500      4.101      0.000      9.606      0.000      0.000      0.000      0.000     -0.006      0.000
          IF   3500.000      4.035      0.000      9.606      0.000      0.000      0.000      0.000      0.003      0.000
          IF   3504.000      4.134      0.000      9.606      0.000      0.000      0.000      0.000     -0.018      0.000
          IF   3509.000      3.871      0.000      9.606      0.000      0.000      0.000      0.000      0.003      0.000
          IF   3515.000      4.167      0.000      9.606      0.000      0.000      0.000      0.000      0.023      0.000
          IF   3520.500      4.134      0.000      9.606      0.000      0.000      0.000      0.000      0.005      0.000
          IF   3527.500      4.232      0.000      9.606      0.000      0.000      0.000      0.000      0.011      0.000
          IF   3532.000      4.265      0.000      9.606      0.000      0.000      0.000      0.000     -0.012      0.000
          IF   3536.000      4.134      0.000      9.606      0.000      0.000      0.000      0.000     -0.034      0.000
          IF   3543.500      3.871      0.000      9.606      0.000      0.000      0.000      0.000      0.016      0.000
          IF   3550.000      4.364      0.000      9.606      0.000      0.000      0.000      0.000      0.005      0.000
          IF   3557.000      3.937      0.000      9.606      0.000      0.000      0.000      0.000     -0.045      0.000
          IF   3565.500      3.674      0.000      9.606      0.000      0.000      0.000      0.000      0.004      0.000
          IF   3574.000      4.003      0.000      9.606      0.000      0.000      0.000      0.000      0.027      0.000
          IF   3584.000      4.167      0.000      9.606      0.000      0.000      0.000      0.000      0.002      0.000
          IF   3591.500      4.039      0.000      9.606      0.000      0.000      0.000      0.000      0.013      0.000
          IF   3596.500      4.334      0.000      9.606      0.000      0.000      0.000      0.000      0.023      0.000
          IF   3607.000      4.400      0.000      9.606      0.000      0.000      0.000      0.000     -0.014      0.000
          IF   3617.000      4.039      0.000      9.607      0.000      0.000      0.000      0.000      0.016      0.000
          IF   3623.500      4.662      0.000      9.607      0.000      0.000      0.000      0.000      0.034      0.000
          IF   3632.500      4.560      0.000      9.607      0.000      0.000      0.000      0.000     -0.015      0.000
          IF   3639.500      4.429      0.000      9.607      0.000      0.000      0.000      0.000      0.006      0.000
          IF   3644.000      4.626      0.000      9.607      0.000      0.000      0.000      0.000      0.004      0.000
          IF   3647.000      4.462      0.000      9.607      0.000      0.000      0.000      0.000     -0.022      0.000
          IF   3653.000      4.429      0.000      9.607      0.000      0.000      0.000      0.000      0.000      0.000
          IF   3661.000      4.462      0.000      9.608      0.000      0.000      0.000      0.000     -0.012      0.000
          IF   3667.000      4.265      0.000      9.608      0.000      0.000      0.000      0.000      0.009      0.000
          IF   3671.500      4.560      0.000      9.608      0.000      0.000      0.000      0.000      0.047      0.000
          IF   3676.000      4.692      0.000      9.608      0.000      0.000      0.000      0.000     -0.080      0.000
          IF   3683.000      3.642      0.000      9.608      0.000      0.000      0.000      0.000     -0.013      0.000
          IF   3688.500      4.528      0.000      9.608      0.000      0.000      0.000      0.000      0.116      0.000
          IF   3693.500      4.856      0.000      9.608      0.000      0.000      0.000      0.000      0.027      0.000
          IF   3699.500      4.823      0.000      9.608      0.000      0.000      0.000      0.000      0.006      0.000
          IF   3704.000      4.921      0.000      9.608      0.000      0.000      0.000      0.000      0.000      0.000
          IF   3709.000      4.823      0.000      9.609      0.000      0.000      0.000      0.000     -0.022      0.000
          IF   3714.500      4.692      0.000      9.609      0.000      0.000      0.000      0.000     -0.028      0.000
          IF   3719.500      4.528      0.000      9.609      0.000      0.000      0.000      0.000     -0.013      0.000
          IF   3725.000      4.560      0.000      9.609      0.000      0.000      0.000      0.000      0.030      0.000
          IF   3732.500      4.921      0.000      9.609      0.000      0.000      0.000      0.000      0.066      0.000
          IF   3735.000      5.216      0.000      9.609      0.000      0.000      0.000      0.000      0.019      0.000
          IF   3739.500      5.052      0.000      9.609      0.000      0.000      0.000      0.000      0.015      0.000
          IF   3744.000      5.348      0.000      9.609      0.000      0.000      0.000      0.000     -0.022      0.000
          IF   3747.000      4.889      0.000      9.609      0.000      0.000      0.000      0.000     -0.017      0.000
          IF   3753.500      5.184      0.000      9.609      0.000      0.000      0.000      0.000      0.092      0.000
          IF   3760.500      6.135      0.000      9.609      0.000      0.000      0.000      0.000      0.069      0.000
          IF   3764.000      5.905      0.000      9.609      0.000      0.000      0.000      0.000     -0.066      0.000
          IF   3768.500      5.610      0.000      9.609      0.000      0.000      0.000      0.000      0.011      0.000
          IF   3778.500      6.070      0.000      9.609      0.000      0.000      0.000      0.000     -0.017      0.000
          IF   3786.000      5.315      0.000      9.609      0.000      0.000      0.000      0.000      0.010      0.000
          IF   3794.500      6.234      0.000      9.609      0.000      0.000      0.000      0.000      0.038      0.000
          IF   3806.000      6.070      0.000      9.609      0.000      0.000      0.000      0.000     -0.002      0.000
          IF   3810.000      6.198      0.000      9.609      0.000      0.000      0.000      0.000      0.048      0.000
          IF   3815.500      6.529      0.000      9.609      0.000      0.000      0.000      0.000      0.019      0.000
          IF   3824.000      6.460      0.000      9.609      0.000      0.000      0.000      0.000     -0.033      0.000
          IF   3834.500      5.902      0.000      9.609      0.000      0.000      0.000      0.000      0.008      0.000
          IF   3847.000      6.654      0.000      9.609      0.000      0.000      0.000      0.000      0.016      0.000
          IF   3863.500      6.361      0.000      9.609      0.000      0.000      0.000      0.000     -0.013      0.000
          IF   3879.500      6.230      0.000      9.609      0.000      0.000      0.000      0.000      0.001      0.000
          IF   3890.000      6.398      0.000      9.609      0.000      0.000      0.000      0.000      0.030      0.000
          IF   3906.000      7.021      0.000      9.609      0.000      0.000      0.000      0.000      0.007      0.000
          IF   3928.000      6.663      0.000      9.609      0.000      0.000      0.000      0.000      0.006      0.000
          IF   3955.500      7.316      0.000      9.609      0.000      0.000      0.000      0.000      0.036      0.000
          IF   3974.000      8.337      0.000      9.609      0.000      0.000      0.000      0.000      0.018      0.000
          IF   3984.000      7.841      0.000      9.609      0.000      0.000      0.000      0.000      0.001      0.000
          IF   4000.000      8.366      0.000      9.609      0.000      0.000      0.000      0.000      0.035      0.000
          IF   4012.500      8.829      0.000      9.609      0.000      0.000      0.000      0.000     -0.004      0.000
          IF   4027.000      8.268      0.000      9.609      0.000      0.000      0.000      0.000     -0.007      0.000
          IF   4075.000      8.402      0.000      9.609      0.000      0.000      0.000      0.000      0.008      0.000
          IF   4091.000      8.763      0.000      9.609      0.000      0.000      0.000      0.000      0.022      0.000
          IF   4106.000      9.088      0.000      9.609      0.000      0.000      0.000      0.000      0.004      0.000
          IF   4123.500      8.891      0.000      9.609      0.000      0.000      0.000      0.000      0.000      0.000
          IF   4139.000      9.091      0.000      9.609      0.000      0.000      0.000      0.000      0.009      0.000
          IF   4156.000      9.186      0.000      9.609      0.000      0.000      0.000      0.000      0.015      0.000
          IF   4172.700      9.609      0.000      9.609      0.000      0.000      0.000      0.000      0.025      0.000
          AS   4174.800      9.609      0.000      9.609      0.000      0.000      0.000      0.000     -0.004      0.000
          IF   4191.000      9.550      0.000      9.609      0.000      0.000      0.000      0.000      0.000      0.000
          IF   4193.100      9.609      0.000      9.609      0.000      0.000      0.000      0.000      0.028      0.000
          ET      0.000      0.000      0.000      0.000      0.000      0.000      0.000      0.000      0.000      0.000
1
            END        END      FETCH SURGE ELEV SURGE ELEV    INITIAL    INITIAL                BOTTOM    AVERAGE
        STATION  ELEVATION     LENGTH    10-YEAR   100-YEAR WAVE HEIGHT  W. PERIOD                SLOPE    A-ZONES
  IE      0.000     -6.528      1.000      1.000      9.035     11.296     12.800     56.140      0.028      0.000
            END        END  NEW SURGE  NEW SURGE                                                 BOTTOM    AVERAGE
        STATION  ELEVATION    10-YEAR   100-YEAR                                                  SLOPE    A-ZONES
  OF      3.000     -6.445      0.000      9.035      0.000      0.000      0.000      0.000      0.028      0.000
            END        END  NEW SURGE  NEW SURGE                                                 BOTTOM    AVERAGE
        STATION  ELEVATION    10-YEAR   100-YEAR                                                  SLOPE    A-ZONES
  OF      4.000     -6.417      0.000      9.035      0.000      0.000      0.000      0.000      0.028      0.000
            END        END  NEW SURGE  NEW SURGE                                                 BOTTOM    AVERAGE
        STATION  ELEVATION    10-YEAR   100-YEAR                                                  SLOPE    A-ZONES
  OF      9.000     -6.279      0.000      9.036      0.000      0.000      0.000      0.000      0.028      0.000
            END        END  NEW SURGE  NEW SURGE                                                 BOTTOM    AVERAGE
        STATION  ELEVATION    10-YEAR   100-YEAR                                                  SLOPE    A-ZONES
  OF     10.000     -6.252      0.000      9.036      0.000      0.000      0.000      0.000      0.028      0.000
            END        END  NEW SURGE  NEW SURGE                                                 BOTTOM    AVERAGE
        STATION  ELEVATION    10-YEAR   100-YEAR                                                  SLOPE    A-ZONES
  OF     15.000     -6.114      0.000      9.036      0.000      0.000      0.000      0.000      0.028      0.000
            END        END  NEW SURGE  NEW SURGE                                                 BOTTOM    AVERAGE
        STATION  ELEVATION    10-YEAR   100-YEAR                                                  SLOPE    A-ZONES
  OF     16.000     -6.086      0.000      9.036      0.000      0.000      0.000      0.000      0.028      0.000
            END        END  NEW SURGE  NEW SURGE                                                 BOTTOM    AVERAGE
        STATION  ELEVATION    10-YEAR   100-YEAR                                                  SLOPE    A-ZONES
  OF     22.000     -5.920      0.000      9.037      0.000      0.000      0.000      0.000      0.028      0.000
            END        END  NEW SURGE  NEW SURGE                                                 BOTTOM    AVERAGE
        STATION  ELEVATION    10-YEAR   100-YEAR                                                  SLOPE    A-ZONES
  OF     27.000     -5.782      0.000      9.037      0.000      0.000      0.000      0.000      0.028      0.000
            END        END  NEW SURGE  NEW SURGE                                                 BOTTOM    AVERAGE
        STATION  ELEVATION    10-YEAR   100-YEAR                                                  SLOPE    A-ZONES
  OF     28.000     -5.755      0.000      9.038      0.000      0.000      0.000      0.000      0.028      0.000
            END        END  NEW SURGE  NEW SURGE                                                 BOTTOM    AVERAGE
        STATION  ELEVATION    10-YEAR   100-YEAR                                                  SLOPE    A-ZONES
  OF     39.000     -5.451      0.000      9.039      0.000      0.000      0.000      0.000      0.028      0.000
            END        END  NEW SURGE  NEW SURGE                                                 BOTTOM    AVERAGE
        STATION  ELEVATION    10-YEAR   100-YEAR                                                  SLOPE    A-ZONES
  OF     40.000     -5.424      0.000      9.039      0.000      0.000      0.000      0.000      0.028      0.000
            END        END  NEW SURGE  NEW SURGE                                                 BOTTOM    AVERAGE
        STATION  ELEVATION    10-YEAR   100-YEAR                                                  SLOPE    A-ZONES
  OF     51.000     -5.120      0.000      9.040      0.000      0.000      0.000      0.000      0.028      0.000
            END        END  NEW SURGE  NEW SURGE                                                 BOTTOM    AVERAGE
        STATION  ELEVATION    10-YEAR   100-YEAR                                                  SLOPE    A-ZONES
  OF     52.000     -5.092      0.000      9.040      0.000      0.000      0.000      0.000      0.027      0.000
            END        END  NEW SURGE  NEW SURGE                                                 BOTTOM    AVERAGE
        STATION  ELEVATION    10-YEAR   100-YEAR                                                  SLOPE    A-ZONES
  OF     61.000     -4.847      0.000      9.041      0.000      0.000      0.000      0.000      0.025      0.000
            END        END  NEW SURGE  NEW SURGE                                                 BOTTOM    AVERAGE
        STATION  ELEVATION    10-YEAR   100-YEAR                                                  SLOPE    A-ZONES
  OF     62.000     -4.840      0.000      9.041      0.000      0.000      0.000      0.000      0.007      0.000
            END        END  NEW SURGE  NEW SURGE                                                 BOTTOM    AVERAGE
        STATION  ELEVATION    10-YEAR   100-YEAR                                                  SLOPE    A-ZONES
  OF     72.200     -4.765      0.000      9.035      0.000      0.000      0.000      0.000      0.007      0.000
            END        END  NEW SURGE  NEW SURGE                                                 BOTTOM    AVERAGE
        STATION  ELEVATION    10-YEAR   100-YEAR                                                  SLOPE    A-ZONES
  OF     75.500     -4.741      0.000      9.036      0.000      0.000      0.000      0.000      0.008      0.000
            END        END  NEW SURGE  NEW SURGE                                                 BOTTOM    AVERAGE
        STATION  ELEVATION    10-YEAR   100-YEAR                                                  SLOPE    A-ZONES
  OF     78.700     -4.715      0.000      9.036      0.000      0.000      0.000      0.000      0.009      0.000
[...]
                                                                          A19  EL=11      95
                                             620.10          10.94
                                                                          A19  EL=11      95
                                             623.40          10.83
                                                                          A19  EL=11      95
                                             626.60          10.69
                                                                          A19  EL=11      95
                                             629.90          10.55
                                                                          A19  EL=11      95
                                             633.20          10.51
                                                                          A19  EL=11      95
                                             636.50          10.52
                                                                          A19  EL=11      95
                                             637.20          10.50
                                                                          A19  EL=10      95
                                             639.80          10.43
                                                                          A19  EL=10      95
                                             643.00          10.34
                                                                          A19  EL=10      95
                                             646.30          10.24
                                                                          A19  EL=10      95
                                             649.60          10.02
                                                                          A19  EL=10      95
                                             652.30           9.72
                                             711.90           9.57
                                                                          A19  EL=10      95
                                             746.40           9.57
                                             747.70           9.57
                                                                          A19  EL=10      95
                                            1188.90           9.57
                                            1190.10           9.57
                                                                          A19  EL=10      95
                                            1198.60           9.57
                                            1199.40           9.57
                                                                          A19  EL=10      95
                                            1284.50           9.66
                                                                          A19  EL=10      95
                                            1299.50           9.74
                                                                          A19  EL=10      95
                                            1350.00           9.69
                                                                          A19  EL=10      95
                                            1363.00           9.76
                                                                          A19  EL=10      95
                                            1391.50           9.74
                                                                          A19  EL=10      95
                                            1400.00           9.76
                                                                          A19  EL=10      95
                                            1418.50           9.71
                                                                          A19  EL=10      95
                                            1431.50           9.77
                                                                          A19  EL=10      95
                                            1455.50           9.85
                                                                          A19  EL=10      95
                                            1466.50           9.88
                                                                          A19  EL=10      95
                                            1492.00           9.93
                                                                          A19  EL=10      95
                                            1496.00           9.94
                                                                          A19  EL=10      95
                                            1547.50          10.03
                                                                          A19  EL=10      95
                                            1554.50          10.03
                                                                          A19  EL=10      95
                                            1653.00          10.09
                                                                          A19  EL=10      95
                                            1662.50          10.11
                                                                          A19  EL=10      95
                                            1718.00          10.19
                                                                          A19  EL=10      95
                                            1727.50          10.20
                                                                          A19  EL=10      95
                                            1751.50          10.23
                                                                          A19  EL=10      95
                                            1755.50          10.23
                                                                          A19  EL=10      95
                                            1766.50          10.24
                                                                          A19  EL=10      95
                                            1778.00          10.25
                                                                          A19  EL=10      95
                                            1802.00          10.28
                                                                          A19  EL=10      95
                                            1806.00          10.28
                                                                          A19  EL=10      95
                                            1823.00          10.30
                                                                          A19  EL=10      95
                                            1829.00          10.30
                                                                          A19  EL=10      95
                                            1856.50          10.32
                                                                          A19  EL=10      95
                                            1861.00          10.33
                                                                          A19  EL=10      95
                                            1882.50          10.34
                                                                          A19  EL=10      95
                                            1892.00          10.35
                                                                          A19  EL=10      95
                                            1911.00          10.37
                                                                          A19  EL=10      95
                                            1920.00          10.37
                                                                          A19  EL=10      95
                                            1958.00          10.40
                                                                          A19  EL=10      95
                                            1967.00          10.41
                                                                          A19  EL=10      95
                                            1990.00          10.43
                                                                          A19  EL=10      95
                                            2005.00          10.44
                                                                          A19  EL=10      95
                                            2026.50          10.45
                                                                          A19  EL=10      95
                                            2035.50          10.46
                                                                          A19  EL=10      95
                                            2055.00          10.47
                                                                          A19  EL=10      95
                                            2064.50          10.48
                                                                          A19  EL=10      95
                                            2078.50          10.49
                                                                          A19  EL=10      95
                                            2092.50          10.50
                                                                          A19  EL=10      95
                                            2095.90          10.50
                                                                          A19  EL=11      95
                                            2114.50          10.51
                                                                          A19  EL=11      95
                                            2126.50          10.52
                                                                          A19  EL=11      95
                                            2138.00          10.53
                                                                          A19  EL=11      95
                                            2147.50          10.54
                                                                          A19  EL=11      95
                                            2160.00          10.54
                                                                          A19  EL=11      95
                                            2174.00          10.56
                                                                          A19  EL=11      95
                                            2182.50          10.56
                                                                          A19  EL=11      95
                                            2191.50          10.56
                                                                          A19  EL=11      95
                                            2205.00          10.57
                                                                          A19  EL=11      95
                                            2223.00          10.59
                                                                          A19  EL=11      95
                                            2236.00          10.59
                                                                          A19  EL=11      95
                                            2249.50          10.60
                                                                          A19  EL=11      95
                                            2256.50          10.61
                                                                          A19  EL=11      95
                                            2265.50          10.62
                                                                          A19  EL=11      95
                                            2282.50          10.63
                                                                          A19  EL=11      95
                                            2306.50          10.64
                                                                          A19  EL=11      95
                                            2313.00          10.64
                                                                          A19  EL=11      95
                                            2334.00          10.66
                                                                          A19  EL=11      95
                                            2345.00          10.66
                                                                          A19  EL=11      95
                                            2370.50          10.68
                                                                          A19  EL=11      95
                                            2379.50          10.69
                                                                          A19  EL=11      95
                                            2405.50          10.71
                                                                          A19  EL=11      95
                                            2412.50          10.71
                                                                          A19  EL=11      95
                                            2428.50          10.72
                                                                          A19  EL=11      95
                                            2439.50          10.73
                                                                          A19  EL=11      95
                                            2471.00          10.74
                                                                          A19  EL=11      95
                                            2478.00          10.75
                                                                          A19  EL=11      95
                                            2510.00          10.77
                                                                          A19  EL=11      95
                                            2518.00          10.78
                                                                          A19  EL=11      95
                                            2541.00          10.79
                                                                          A19  EL=11      95
                                            2549.50          10.80
                                                                          A19  EL=11      95
                                            2596.00          10.82
                                                                          A19  EL=11      95
                                            2825.00          10.95
                                                                          A19  EL=11      95
                                            2933.00          11.01
                                                                          A19  EL=11      95
                                            2934.00          11.01
                                                                          A19  EL=11      95
                                            3006.00          11.05
                                                                          A19  EL=11      95
                                            3017.00          11.05
                                                                          A19  EL=11      95
                                            3103.00          11.09
                                                                          A19  EL=11      95
                                            3115.00          11.10
                                                                          A19  EL=11      95
                                            3153.00          11.12
                                                                          A19  EL=11      95
                                            3223.00          11.15
                                                                          A19  EL=11      95
                                            3267.50          11.04
                                                                          A19  EL=11      95
                                            3273.50          11.11
                                                                          A19  EL=11      95
                                            3311.00          11.08
                                                                          A19  EL=11      95
                                            3321.00          11.12
                                                                          A19  EL=11      95
                                            3361.50          11.07
                                                                          A19  EL=11      95
                                            3366.00          11.08
                                                                          A19  EL=11      95
                                            3399.50          11.17
                                                                          A19  EL=11      95
                                            3404.00          11.17
                                                                          A19  EL=11      95
                                            3447.00          11.03
                                                                          A19  EL=11      95
                                            3461.00          11.12
                                                                          A19  EL=11      95
                                            3483.50          11.13
                                                                          A19  EL=11      95
                                            3492.50          11.14
                                                                          A19  EL=11      95
                                            3607.00          11.17
                                                                          A19  EL=11      95
                                            3617.00          11.19
                                                                          A19  EL=11      95
                                            3653.00          11.18
                                                                          A19  EL=11      95
                                            3661.00          11.18
                                                                          A19  EL=11      95
                                            3704.00          11.16
                                                                          A19  EL=11      95
                                            3709.00          11.16
                                                                          A19  EL=11      95
                                            3962.02          10.50
                                                                          A19  EL=10      95
                                            4172.70           9.61
                                            4174.80           9.61
                                                                          A19  EL=10      95
                                            4193.10           9.61
                                                  ZONE TERMINATED AT END OF TRANSECT
                                                  PART 7   POSTSCRIPT NOTES
                         PS#  1   START(385964.2581,4805997.3955)                                              
                         PS#  2   END(384882.4587,4806777.6613)                                                
-1.000000e+00
