 WAVE HEIGHT COMPUTATIONS FOR FLOOD INSURANCE STUDIES (WHAFIS VERSION 4.0G, 08_2007)
 Executed on: Thu Feb  6 16:14:34 2020
 Input file:  C:\Users\shayward\Desktop\Kittery\T2\3_whafis\whafis4\YK-06.dat                                                                 
 Output file: C:\Users\shayward\Desktop\Kittery\T2\3_whafis\whafis4\YK-06.out                                                                 



                                                              header                                                                
                                                     THIS IS A 100-YEAR CASE


                                       THE FOLLOWING NON-DEFAULT WIND SPEEDS ARE BEING USED
                                            WINDIF  56.14  WINDOF  56.14  WINDVH  60.00

                                                             PART1 INPUT

          IE      0.000    -16.829      1.000      1.000      9.024      9.375      9.618     56.140     -0.033      0.000
          OF      1.000    -16.862      0.000      9.024      0.000      0.000      0.000      0.000     -0.032      0.000
          OF      2.000    -16.894      0.000      9.024      0.000      0.000      0.000      0.000     -0.032      0.000
          OF      3.000    -16.927      0.000      9.024      0.000      0.000      0.000      0.000     -0.032      0.000
          OF      4.000    -16.959      0.000      9.024      0.000      0.000      0.000      0.000     -0.032      0.000
          OF      5.000    -16.992      0.000      9.024      0.000      0.000      0.000      0.000     -0.032      0.000
          OF      6.000    -17.024      0.000      9.024      0.000      0.000      0.000      0.000     -0.032      0.000
          OF      7.000    -17.056      0.000      9.024      0.000      0.000      0.000      0.000     -0.032      0.000
          OF      8.000    -17.089      0.000      9.024      0.000      0.000      0.000      0.000     -0.032      0.000
          OF      9.000    -17.120      0.000      9.024      0.000      0.000      0.000      0.000     -0.030      0.000
          OF     10.000    -17.148      0.000      9.024      0.000      0.000      0.000      0.000     -0.027      0.000
          OF     11.000    -17.175      0.000      9.024      0.000      0.000      0.000      0.000     -0.027      0.000
          OF     12.000    -17.203      0.000      9.024      0.000      0.000      0.000      0.000     -0.027      0.000
          OF     13.000    -17.230      0.000      9.024      0.000      0.000      0.000      0.000     -0.027      0.000
          OF     14.000    -17.258      0.000      9.024      0.000      0.000      0.000      0.000     -0.027      0.000
          OF     15.000    -17.285      0.000      9.024      0.000      0.000      0.000      0.000     -0.027      0.000
          OF     16.000    -17.313      0.000      9.024      0.000      0.000      0.000      0.000     -0.027      0.000
          OF     17.000    -17.340      0.000      9.024      0.000      0.000      0.000      0.000     -0.027      0.000
          OF     18.000    -17.368      0.000      9.024      0.000      0.000      0.000      0.000     -0.027      0.000
          OF     19.000    -17.395      0.000      9.024      0.000      0.000      0.000      0.000     -0.027      0.000
          OF     20.000    -17.423      0.000      9.024      0.000      0.000      0.000      0.000     -0.027      0.000
          OF     21.000    -17.450      0.000      9.024      0.000      0.000      0.000      0.000     -0.027      0.000
          OF     22.000    -17.478      0.000      9.024      0.000      0.000      0.000      0.000     -0.027      0.000
          OF     23.000    -17.505      0.000      9.024      0.000      0.000      0.000      0.000     -0.027      0.000
          OF     24.000    -17.533      0.000      9.024      0.000      0.000      0.000      0.000     -0.027      0.000
          OF     25.000    -17.560      0.000      9.024      0.000      0.000      0.000      0.000     -0.027      0.000
          OF     26.000    -17.588      0.000      9.024      0.000      0.000      0.000      0.000     -0.027      0.000
          OF     27.000    -17.615      0.000      9.024      0.000      0.000      0.000      0.000     -0.027      0.000
          OF     28.000    -17.643      0.000      9.024      0.000      0.000      0.000      0.000     -0.027      0.000
          OF     29.000    -17.670      0.000      9.024      0.000      0.000      0.000      0.000      0.011      0.000
          OF     30.000    -17.621      0.000      9.024      0.000      0.000      0.000      0.000      0.053      0.000
          OF     31.000    -17.564      0.000      9.024      0.000      0.000      0.000      0.000      0.058      0.000
          OF     32.000    -17.506      0.000      9.024      0.000      0.000      0.000      0.000      0.058      0.000
          OF     33.000    -17.449      0.000      9.024      0.000      0.000      0.000      0.000      0.057      0.000
          OF     34.000    -17.392      0.000      9.024      0.000      0.000      0.000      0.000      0.058      0.000
          OF     35.000    -17.334      0.000      9.024      0.000      0.000      0.000      0.000      0.058      0.000
          OF     36.000    -17.277      0.000      9.024      0.000      0.000      0.000      0.000      0.058      0.000
          OF     37.000    -17.219      0.000      9.024      0.000      0.000      0.000      0.000      0.058      0.000
          OF     38.000    -17.162      0.000      9.024      0.000      0.000      0.000      0.000      0.057      0.000
          OF     39.000    -17.105      0.000      9.024      0.000      0.000      0.000      0.000      0.058      0.000
          OF     40.000    -17.047      0.000      9.024      0.000      0.000      0.000      0.000      0.058      0.000
          OF     41.000    -16.990      0.000      9.024      0.000      0.000      0.000      0.000      0.058      0.000
          OF     42.000    -16.932      0.000      9.024      0.000      0.000      0.000      0.000      0.058      0.000
          OF     43.000    -16.875      0.000      9.024      0.000      0.000      0.000      0.000      0.057      0.000
          OF     44.000    -16.818      0.000      9.024      0.000      0.000      0.000      0.000      0.058      0.000
          OF     45.000    -16.760      0.000      9.024      0.000      0.000      0.000      0.000      0.058      0.000
          OF     46.000    -16.703      0.000      9.024      0.000      0.000      0.000      0.000      0.058      0.000
          OF     47.000    -16.645      0.000      9.024      0.000      0.000      0.000      0.000      0.058      0.000
          OF     48.000    -16.588      0.000      9.024      0.000      0.000      0.000      0.000      0.056      0.000
          OF     49.000    -16.533      0.000      9.024      0.000      0.000      0.000      0.000      0.054      0.000
          OF     50.000    -16.481      0.000      9.024      0.000      0.000      0.000      0.000      0.052      0.000
          OF     51.000    -16.430      0.000      9.024      0.000      0.000      0.000      0.000      0.052      0.000
          OF     52.000    -16.378      0.000      9.024      0.000      0.000      0.000      0.000      0.052      0.000
          OF     53.000    -16.327      0.000      9.024      0.000      0.000      0.000      0.000      0.052      0.000
          OF     54.000    -16.275      0.000      9.024      0.000      0.000      0.000      0.000      0.052      0.000
          OF     55.000    -16.224      0.000      9.024      0.000      0.000      0.000      0.000      0.052      0.000
          OF     56.000    -16.172      0.000      9.024      0.000      0.000      0.000      0.000      0.052      0.000
          OF     57.000    -16.121      0.000      9.024      0.000      0.000      0.000      0.000      0.052      0.000
          OF     58.000    -16.069      0.000      9.024      0.000      0.000      0.000      0.000      0.052      0.000
          OF     59.000    -16.018      0.000      9.024      0.000      0.000      0.000      0.000      0.052      0.000
          OF     60.000    -15.966      0.000      9.024      0.000      0.000      0.000      0.000      0.052      0.000
          OF     61.000    -15.915      0.000      9.024      0.000      0.000      0.000      0.000      0.052      0.000
          OF     62.000    -15.863      0.000      9.024      0.000      0.000      0.000      0.000      0.052      0.000
          OF     63.000    -15.812      0.000      9.024      0.000      0.000      0.000      0.000      0.051      0.000
          OF     64.000    -15.761      0.000      9.024      0.000      0.000      0.000      0.000      0.052      0.000
          OF     65.000    -15.709      0.000      9.024      0.000      0.000      0.000      0.000      0.052      0.000
          OF     66.000    -15.658      0.000      9.024      0.000      0.000      0.000      0.000      0.052      0.000
          OF     67.000    -15.606      0.000      9.024      0.000      0.000      0.000      0.000      0.052      0.000
          OF     68.000    -15.555      0.000      9.024      0.000      0.000      0.000      0.000      0.052      0.000
          OF     69.000    -15.503      0.000      9.024      0.000      0.000      0.000      0.000      0.052      0.000
          OF     70.000    -15.452      0.000      9.024      0.000      0.000      0.000      0.000      0.052      0.000
          OF     71.000    -15.400      0.000      9.024      0.000      0.000      0.000      0.000      0.052      0.000
          OF     72.000    -15.349      0.000      9.024      0.000      0.000      0.000      0.000      0.052      0.000
          OF     73.000    -15.297      0.000      9.024      0.000      0.000      0.000      0.000      0.052      0.000
          OF     74.000    -15.246      0.000      9.024      0.000      0.000      0.000      0.000      0.052      0.000
          OF     75.000    -15.194      0.000      9.024      0.000      0.000      0.000      0.000      0.052      0.000
          OF     76.000    -15.143      0.000      9.024      0.000      0.000      0.000      0.000      0.052      0.000
          OF     77.000    -15.091      0.000      9.024      0.000      0.000      0.000      0.000      0.052      0.000
          OF     78.000    -15.040      0.000      9.024      0.000      0.000      0.000      0.000      0.051      0.000
          OF     79.000    -14.989      0.000      9.024      0.000      0.000      0.000      0.000      0.052      0.000
          OF     80.000    -14.937      0.000      9.024      0.000      0.000      0.000      0.000      0.052      0.000
          OF     81.000    -14.886      0.000      9.024      0.000      0.000      0.000      0.000      0.052      0.000
          OF     82.000    -14.834      0.000      9.024      0.000      0.000      0.000      0.000      0.052      0.000
          OF     83.000    -14.783      0.000      9.024      0.000      0.000      0.000      0.000      0.052      0.000
          OF     84.000    -14.731      0.000      9.024      0.000      0.000      0.000      0.000      0.052      0.000
          OF     85.000    -14.680      0.000      9.024      0.000      0.000      0.000      0.000      0.052      0.000
          OF     86.000    -14.628      0.000      9.024      0.000      0.000      0.000      0.000      0.052      0.000
          OF     87.000    -14.577      0.000      9.024      0.000      0.000      0.000      0.000      0.052      0.000
          OF     88.000    -14.525      0.000      9.024      0.000      0.000      0.000      0.000      0.052      0.000
          OF     89.000    -14.474      0.000      9.024      0.000      0.000      0.000      0.000      0.052      0.000
          OF     90.000    -14.422      0.000      9.024      0.000      0.000      0.000      0.000      0.052      0.000
          OF     91.000    -14.371      0.000      9.024      0.000      0.000      0.000      0.000      0.052      0.000
          OF     92.000    -14.319      0.000      9.024      0.000      0.000      0.000      0.000      0.052      0.000
          OF     93.000    -14.268      0.000      9.024      0.000      0.000      0.000      0.000      0.051      0.000
          OF     94.000    -14.217      0.000      9.024      0.000      0.000      0.000      0.000      0.052      0.000
          OF     95.000    -14.165      0.000      9.024      0.000      0.000      0.000      0.000      0.052      0.000
          OF     96.000    -14.114      0.000      9.024      0.000      0.000      0.000      0.000      0.052      0.000
          OF     97.000    -14.062      0.000      9.024      0.000      0.000      0.000      0.000      0.052      0.000
          OF     98.000    -14.011      0.000      9.024      0.000      0.000      0.000      0.000      0.052      0.000
          OF     99.000    -13.959      0.000      9.024      0.000      0.000      0.000      0.000      0.052      0.000
          OF    100.000    -13.908      0.000      9.024      0.000      0.000      0.000      0.000      0.052      0.000
          OF    101.000    -13.856      0.000      9.024      0.000      0.000      0.000      0.000      0.052      0.000
          OF    102.000    -13.805      0.000      9.024      0.000      0.000      0.000      0.000      0.052      0.000
          OF    103.000    -13.753      0.000      9.024      0.000      0.000      0.000      0.000      0.052      0.000
          OF    104.000    -13.702      0.000      9.024      0.000      0.000      0.000      0.000      0.052      0.000
          OF    105.000    -13.650      0.000      9.024      0.000      0.000      0.000      0.000      0.052      0.000
          OF    106.000    -13.599      0.000      9.024      0.000      0.000      0.000      0.000      0.052      0.000
          OF    107.000    -13.547      0.000      9.024      0.000      0.000      0.000      0.000      0.052      0.000
          OF    108.000    -13.496      0.000      9.024      0.000      0.000      0.000      0.000      0.051      0.000
          OF    109.000    -13.445      0.000      9.024      0.000      0.000      0.000      0.000      0.052      0.000
          OF    110.000    -13.393      0.000      9.024      0.000      0.000      0.000      0.000      0.052      0.000
          OF    111.000    -13.342      0.000      9.024      0.000      0.000      0.000      0.000      0.052      0.000
          OF    112.000    -13.290      0.000      9.024      0.000      0.000      0.000      0.000      0.052      0.000
          OF    113.000    -13.239      0.000      9.024      0.000      0.000      0.000      0.000      0.062      0.000
          OF    114.000    -13.167      0.000      9.024      0.000      0.000      0.000      0.000      0.084      0.000
          OF    115.000    -13.071      0.000      9.024      0.000      0.000      0.000      0.000      0.097      0.000
          OF    116.000    -12.974      0.000      9.024      0.000      0.000      0.000      0.000      0.097      0.000
          OF    117.000    -12.877      0.000      9.024      0.000      0.000      0.000      0.000      0.097      0.000
          OF    118.000    -12.780      0.000      9.024      0.000      0.000      0.000      0.000      0.097      0.000
          OF    119.000    -12.684      0.000      9.024      0.000      0.000      0.000      0.000      0.097      0.000
          OF    120.000    -12.587      0.000      9.024      0.000      0.000      0.000      0.000      0.097      0.000
          OF    121.000    -12.490      0.000      9.024      0.000      0.000      0.000      0.000      0.097      0.000
          OF    122.000    -12.393      0.000      9.024      0.000      0.000      0.000      0.000      0.097      0.000
          OF    123.000    -12.297      0.000      9.024      0.000      0.000      0.000      0.000      0.097      0.000
          OF    124.000    -12.200      0.000      9.024      0.000      0.000      0.000      0.000      0.097      0.000
          OF    125.000    -12.103      0.000      9.024      0.000      0.000      0.000      0.000      0.097      0.000
          OF    126.000    -12.007      0.000      9.024      0.000      0.000      0.000      0.000      0.097      0.000
          OF    127.000    -11.910      0.000      9.024      0.000      0.000      0.000      0.000      0.097      0.000
          OF    128.000    -11.813      0.000      9.024      0.000      0.000      0.000      0.000      0.097      0.000
          OF    129.000    -11.716      0.000      9.024      0.000      0.000      0.000      0.000      0.097      0.000
          OF    130.000    -11.620      0.000      9.024      0.000      0.000      0.000      0.000      0.097      0.000
          OF    131.000    -11.523      0.000      9.024      0.000      0.000      0.000      0.000      0.097      0.000
          OF    132.000    -11.426      0.000      9.024      0.000      0.000      0.000      0.000      0.097      0.000
          OF    133.000    -11.329      0.000      9.024      0.000      0.000      0.000      0.000      0.097      0.000
          OF    134.000    -11.232      0.000      9.024      0.000      0.000      0.000      0.000      0.097      0.000
          OF    135.000    -11.134      0.000      9.024      0.000      0.000      0.000      0.000      0.098      0.000
          OF    136.000    -11.035      0.000      9.024      0.000      0.000      0.000      0.000      0.099      0.000
          OF    137.000    -10.936      0.000      9.024      0.000      0.000      0.000      0.000      0.099      0.000
          OF    138.000    -10.837      0.000      9.024      0.000      0.000      0.000      0.000      0.099      0.000
          OF    139.000    -10.738      0.000      9.024      0.000      0.000      0.000      0.000      0.099      0.000
          OF    140.000    -10.639      0.000      9.024      0.000      0.000      0.000      0.000      0.099      0.000
          OF    141.000    -10.540      0.000      9.024      0.000      0.000      0.000      0.000      0.099      0.000
          OF    142.000    -10.441      0.000      9.024      0.000      0.000      0.000      0.000      0.099      0.000
          OF    143.000    -10.342      0.000      9.024      0.000      0.000      0.000      0.000      0.099      0.000
          OF    144.000    -10.243      0.000      9.024      0.000      0.000      0.000      0.000      0.099      0.000
          OF    145.000    -10.144      0.000      9.024      0.000      0.000      0.000      0.000      0.099      0.000
          OF    146.000    -10.045      0.000      9.024      0.000      0.000      0.000      0.000      0.098      0.000
          OF    147.000     -9.947      0.000      9.024      0.000      0.000      0.000      0.000      0.098      0.000
          OF    148.000     -9.848      0.000      9.024      0.000      0.000      0.000      0.000      0.099      0.000
          OF    149.000     -9.749      0.000      9.024      0.000      0.000      0.000      0.000      0.099      0.000
          OF    150.000     -9.650      0.000      9.024      0.000      0.000      0.000      0.000      0.099      0.000
          OF    151.000     -9.551      0.000      9.024      0.000      0.000      0.000      0.000      0.099      0.000
          OF    152.000     -9.452      0.000      9.024      0.000      0.000      0.000      0.000      0.099      0.000
          OF    153.000     -9.353      0.000      9.024      0.000      0.000      0.000      0.000      0.099      0.000
          OF    154.000     -9.254      0.000      9.024      0.000      0.000      0.000      0.000      0.099      0.000
          OF    155.000     -9.156      0.000      9.024      0.000      0.000      0.000      0.000      0.099      0.000
          OF    156.000     -9.057      0.000      9.024      0.000      0.000      0.000      0.000      0.099      0.000
          OF    157.000     -8.958      0.000      9.024      0.000      0.000      0.000      0.000      0.099      0.000
          OF    158.000     -8.859      0.000      9.024      0.000      0.000      0.000      0.000      0.099      0.000
          OF    159.000     -8.760      0.000      9.024      0.000      0.000      0.000      0.000      0.099      0.000
          OF    160.000     -8.661      0.000      9.024      0.000      0.000      0.000      0.000      0.099      0.000
          OF    161.000     -8.562      0.000      9.024      0.000      0.000      0.000      0.000      0.099      0.000
          OF    162.000     -8.463      0.000      9.024      0.000      0.000      0.000      0.000      0.099      0.000
          OF    163.000     -8.364      0.000      9.023      0.000      0.000      0.000      0.000      0.099      0.000
          OF    164.000     -8.265      0.000      9.023      0.000      0.000      0.000      0.000      0.099      0.000
          OF    165.000     -8.166      0.000      9.023      0.000      0.000      0.000      0.000      0.099      0.000
          OF    166.000     -8.067      0.000      9.023      0.000      0.000      0.000      0.000      0.099      0.000
          OF    167.000     -7.968      0.000      9.023      0.000      0.000      0.000      0.000      0.099      0.000
          OF    168.000     -7.870      0.000      9.023      0.000      0.000      0.000      0.000      0.099      0.000
          OF    169.000     -7.771      0.000      9.023      0.000      0.000      0.000      0.000      0.099      0.000
          OF    170.000     -7.672      0.000      9.023      0.000      0.000      0.000      0.000      0.099      0.000
          OF    171.000     -7.573      0.000      9.023      0.000      0.000      0.000      0.000      0.099      0.000
          OF    172.000     -7.474      0.000      9.023      0.000      0.000      0.000      0.000      0.099      0.000
          OF    173.000     -7.375      0.000      9.023      0.000      0.000      0.000      0.000      0.099      0.000
          OF    174.000     -7.276      0.000      9.023      0.000      0.000      0.000      0.000      0.099      0.000
          OF    175.000     -7.177      0.000      9.023      0.000      0.000      0.000      0.000      0.099      0.000
          OF    176.000     -7.078      0.000      9.023      0.000      0.000      0.000      0.000      0.099      0.000
          OF    177.000     -6.979      0.000      9.023      0.000      0.000      0.000      0.000      0.099      0.000
          OF    178.000     -6.880      0.000      9.023      0.000      0.000      0.000      0.000      0.099      0.000
          OF    179.000     -6.781      0.000      9.023      0.000      0.000      0.000      0.000      0.099      0.000
          OF    180.000     -6.682      0.000      9.023      0.000      0.000      0.000      0.000      0.099      0.000
          OF    181.000     -6.583      0.000      9.023      0.000      0.000      0.000      0.000      0.099      0.000
          OF    182.000     -6.485      0.000      9.023      0.000      0.000      0.000      0.000      0.073      0.000
          OF    183.000     -6.437      0.000      9.023      0.000      0.000      0.000      0.000      0.001      0.000
          OF    184.000     -6.483      0.000      9.023      0.000      0.000      0.000      0.000     -0.047      0.000
          OF    185.000     -6.530      0.000      9.023      0.000      0.000      0.000      0.000     -0.047      0.000
          OF    186.000     -6.576      0.000      9.023      0.000      0.000      0.000      0.000     -0.047      0.000
          OF    187.000     -6.623      0.000      9.023      0.000      0.000      0.000      0.000     -0.047      0.000
          OF    188.000     -6.669      0.000      9.023      0.000      0.000      0.000      0.000     -0.047      0.000
          OF    189.000     -6.716      0.000      9.023      0.000      0.000      0.000      0.000     -0.047      0.000
          OF    190.000     -6.763      0.000      9.023      0.000      0.000      0.000      0.000     -0.047      0.000
          OF    191.000     -6.809      0.000      9.023      0.000      0.000      0.000      0.000     -0.047      0.000
          OF    192.000     -6.856      0.000      9.023      0.000      0.000      0.000      0.000     -0.047      0.000
          OF    193.000     -6.902      0.000      9.023      0.000      0.000      0.000      0.000     -0.047      0.000
          OF    194.000     -6.949      0.000      9.023      0.000      0.000      0.000      0.000     -0.047      0.000
          OF    195.000     -6.995      0.000      9.023      0.000      0.000      0.000      0.000     -0.047      0.000
          OF    196.000     -7.042      0.000      9.023      0.000      0.000      0.000      0.000     -0.047      0.000
          OF    197.000     -7.089      0.000      9.023      0.000      0.000      0.000      0.000     -0.047      0.000
          OF    198.000     -7.135      0.000      9.022      0.000      0.000      0.000      0.000     -0.047      0.000
          OF    199.000     -7.182      0.000      9.022      0.000      0.000      0.000      0.000     -0.047      0.000
          OF    200.000     -7.228      0.000      9.022      0.000      0.000      0.000      0.000     -0.047      0.000
          OF    201.000     -7.275      0.000      9.022      0.000      0.000      0.000      0.000     -0.047      0.000
          OF    202.000     -7.321      0.000      9.022      0.000      0.000      0.000      0.000     -0.047      0.000
          OF    203.000     -7.368      0.000      9.022      0.000      0.000      0.000      0.000     -0.047      0.000
          OF    204.000     -7.414      0.000      9.022      0.000      0.000      0.000      0.000     -0.047      0.000
          OF    205.000     -7.461      0.000      9.022      0.000      0.000      0.000      0.000     -0.047      0.000
          OF    206.000     -7.508      0.000      9.022      0.000      0.000      0.000      0.000     -0.047      0.000
          OF    207.000     -7.554      0.000      9.022      0.000      0.000      0.000      0.000     -0.047      0.000
          OF    208.000     -7.601      0.000      9.022      0.000      0.000      0.000      0.000     -0.047      0.000
          OF    209.000     -7.647      0.000      9.022      0.000      0.000      0.000      0.000     -0.047      0.000
          OF    210.000     -7.694      0.000      9.022      0.000      0.000      0.000      0.000     -0.047      0.000
          OF    211.000     -7.740      0.000      9.022      0.000      0.000      0.000      0.000     -0.047      0.000
          OF    212.000     -7.787      0.000      9.022      0.000      0.000      0.000      0.000     -0.047      0.000
          OF    213.000     -7.833      0.000      9.022      0.000      0.000      0.000      0.000     -0.047      0.000
          OF    214.000     -7.880      0.000      9.022      0.000      0.000      0.000      0.000     -0.047      0.000
          OF    215.000     -7.926      0.000      9.022      0.000      0.000      0.000      0.000     -0.047      0.000
          OF    216.000     -7.973      0.000      9.022      0.000      0.000      0.000      0.000     -0.047      0.000
          OF    217.000     -8.020      0.000      9.022      0.000      0.000      0.000      0.000     -0.047      0.000
          OF    218.000     -8.066      0.000      9.022      0.000      0.000      0.000      0.000     -0.047      0.000
          OF    219.000     -8.113      0.000      9.022      0.000      0.000      0.000      0.000     -0.047      0.000
          OF    220.000     -8.159      0.000      9.022      0.000      0.000      0.000      0.000     -0.047      0.000
          OF    221.000     -8.206      0.000      9.022      0.000      0.000      0.000      0.000     -0.047      0.000
          OF    222.000     -8.252      0.000      9.022      0.000      0.000      0.000      0.000     -0.047      0.000
          OF    223.000     -8.299      0.000      9.022      0.000      0.000      0.000      0.000     -0.047      0.000
          OF    224.000     -8.345      0.000      9.022      0.000      0.000      0.000      0.000     -0.047      0.000
          OF    225.000     -8.392      0.000      9.022      0.000      0.000      0.000      0.000     -0.047      0.000
          OF    226.000     -8.439      0.000      9.022      0.000      0.000      0.000      0.000     -0.047      0.000
          OF    227.000     -8.485      0.000      9.022      0.000      0.000      0.000      0.000     -0.047      0.000
          OF    228.000     -8.532      0.000      9.022      0.000      0.000      0.000      0.000     -0.030      0.000
          OF    229.000     -8.545      0.000      9.022      0.000      0.000      0.000      0.000      0.022      0.000
          OF    230.000     -8.488      0.000      9.021      0.000      0.000      0.000      0.000      0.058      0.000
          OF    231.000     -8.430      0.000      9.021      0.000      0.000      0.000      0.000      0.058      0.000
          OF    232.000     -8.372      0.000      9.021      0.000      0.000      0.000      0.000      0.058      0.000
          OF    233.000     -8.314      0.000      9.021      0.000      0.000      0.000      0.000      0.058      0.000
          OF    234.000     -8.257      0.000      9.021      0.000      0.000      0.000      0.000      0.058      0.000
          OF    235.000     -8.199      0.000      9.021      0.000      0.000      0.000      0.000      0.058      0.000
          OF    236.000     -8.141      0.000      9.021      0.000      0.000      0.000      0.000      0.058      0.000
          OF    237.000     -8.083      0.000      9.021      0.000      0.000      0.000      0.000      0.058      0.000
          OF    238.000     -8.025      0.000      9.021      0.000      0.000      0.000      0.000      0.058      0.000
          OF    239.000     -7.968      0.000      9.021      0.000      0.000      0.000      0.000      0.058      0.000
          OF    240.000     -7.910      0.000      9.021      0.000      0.000      0.000      0.000      0.058      0.000
          OF    241.000     -7.852      0.000      9.021      0.000      0.000      0.000      0.000      0.058      0.000
          OF    242.000     -7.794      0.000      9.021      0.000      0.000      0.000      0.000      0.058      0.000
          OF    243.000     -7.736      0.000      9.021      0.000      0.000      0.000      0.000      0.058      0.000
          OF    244.000     -7.678      0.000      9.021      0.000      0.000      0.000      0.000      0.058      0.000
          OF    245.000     -7.621      0.000      9.021      0.000      0.000      0.000      0.000      0.058      0.000
          OF    246.000     -7.563      0.000      9.021      0.000      0.000      0.000      0.000      0.058      0.000
          OF    247.000     -7.505      0.000      9.021      0.000      0.000      0.000      0.000      0.058      0.000
          OF    248.000     -7.447      0.000      9.021      0.000      0.000      0.000      0.000      0.058      0.000
          OF    249.000     -7.389      0.000      9.021      0.000      0.000      0.000      0.000      0.058      0.000
          OF    250.000     -7.332      0.000      9.021      0.000      0.000      0.000      0.000      0.058      0.000
          OF    251.000     -7.274      0.000      9.021      0.000      0.000      0.000      0.000      0.058      0.000
          OF    252.000     -7.216      0.000      9.021      0.000      0.000      0.000      0.000      0.058      0.000
          OF    253.000     -7.158      0.000      9.021      0.000      0.000      0.000      0.000      0.058      0.000
          OF    254.000     -7.100      0.000      9.021      0.000      0.000      0.000      0.000      0.058      0.000
          OF    255.000     -7.043      0.000      9.021      0.000      0.000      0.000      0.000      0.058      0.000
          OF    256.000     -6.985      0.000      9.021      0.000      0.000      0.000      0.000      0.057      0.000
          OF    257.000     -6.928      0.000      9.021      0.000      0.000      0.000      0.000      0.051      0.000
          OF    258.000     -6.882      0.000      9.021      0.000      0.000      0.000      0.000      0.046      0.000
          OF    259.000     -6.836      0.000      9.021      0.000      0.000      0.000      0.000      0.046      0.000
          OF    260.000     -6.790      0.000      9.021      0.000      0.000      0.000      0.000      0.046      0.000
          OF    261.000     -6.745      0.000      9.021      0.000      0.000      0.000      0.000      0.046      0.000
          OF    262.000     -6.699      0.000      9.021      0.000      0.000      0.000      0.000      0.046      0.000
          OF    263.000     -6.653      0.000      9.021      0.000      0.000      0.000      0.000      0.046      0.000
          OF    264.000     -6.607      0.000      9.021      0.000      0.000      0.000      0.000      0.046      0.000
          OF    265.000     -6.561      0.000      9.021      0.000      0.000      0.000      0.000      0.046      0.000
          OF    266.000     -6.515      0.000      9.021      0.000      0.000      0.000      0.000      0.046      0.000
          OF    267.000     -6.470      0.000      9.021      0.000      0.000      0.000      0.000      0.046      0.000
          OF    268.000     -6.424      0.000      9.021      0.000      0.000      0.000      0.000      0.046      0.000
          OF    269.000     -6.378      0.000      9.021      0.000      0.000      0.000      0.000      0.046      0.000
          OF    270.000     -6.332      0.000      9.021      0.000      0.000      0.000      0.000      0.046      0.000
          OF    271.000     -6.286      0.000      9.021      0.000      0.000      0.000      0.000      0.046      0.000
          OF    272.000     -6.240      0.000      9.021      0.000      0.000      0.000      0.000      0.046      0.000
          OF    273.000     -6.194      0.000      9.020      0.000      0.000      0.000      0.000      0.046      0.000
          OF    274.000     -6.149      0.000      9.021      0.000      0.000      0.000      0.000      0.046      0.000
          OF    275.000     -6.103      0.000      9.021      0.000      0.000      0.000      0.000      0.046      0.000
          OF    276.000     -6.057      0.000      9.021      0.000      0.000      0.000      0.000      0.046      0.000
          OF    277.000     -6.011      0.000      9.021      0.000      0.000      0.000      0.000      0.046      0.000
          OF    278.000     -5.965      0.000      9.021      0.000      0.000      0.000      0.000      0.046      0.000
          OF    279.000     -5.920      0.000      9.021      0.000      0.000      0.000      0.000      0.046      0.000
          OF    280.000     -5.874      0.000      9.021      0.000      0.000      0.000      0.000      0.046      0.000
          OF    281.000     -5.828      0.000      9.021      0.000      0.000      0.000      0.000      0.046      0.000
          OF    282.000     -5.782      0.000      9.021      0.000      0.000      0.000      0.000      0.046      0.000
          OF    283.000     -5.736      0.000      9.021      0.000      0.000      0.000      0.000      0.046      0.000
          OF    286.000     -5.599      0.000      9.021      0.000      0.000      0.000      0.000      0.037      0.000
          OF    287.000     -5.588      0.000      9.021      0.000      0.000      0.000      0.000      0.005      0.000
          OF    288.000     -5.588      0.000      9.022      0.000      0.000      0.000      0.000      0.001      0.000
          OF    289.000     -5.587      0.000      9.022      0.000      0.000      0.000      0.000      0.001      0.000
          OF    290.000     -5.587      0.000      9.022      0.000      0.000      0.000      0.000      0.001      0.000
          OF    291.000     -5.586      0.000      9.022      0.000      0.000      0.000      0.000      0.001      0.000
          OF    292.000     -5.586      0.000      9.022      0.000      0.000      0.000      0.000      0.001      0.000
          OF    293.000     -5.585      0.000      9.022      0.000      0.000      0.000      0.000      0.001      0.000
          OF    294.000     -5.584      0.000      9.022      0.000      0.000      0.000      0.000      0.001      0.000
          OF    295.000     -5.584      0.000      9.022      0.000      0.000      0.000      0.000      0.001      0.000
          OF    296.000     -5.583      0.000      9.022      0.000      0.000      0.000      0.000      0.058      0.000
          IF    423.200      1.818      0.000      9.031      0.000      0.000      0.000      0.000      0.059      0.000
          IF    426.500      2.124      0.000      9.039      0.000      0.000      0.000      0.000      0.103      0.000
          IF    429.800      2.501      0.000      9.048      0.000      0.000      0.000      0.000      0.158      0.000
          IF    433.100      3.166      0.000      9.052      0.000      0.000      0.000      0.000      0.250      0.000
          IF    436.400      4.152      0.000      9.059      0.000      0.000      0.000      0.000      0.396      0.000
          IF    439.600      5.739      0.000      9.107      0.000      0.000      0.000      0.000      0.634      0.000
          IF    442.900      8.273      0.000      9.754      0.000      0.000      0.000      0.000      0.748      0.000
          IF    444.000      9.031      0.000      9.754      0.000      0.000      0.000      0.000      0.705      0.000
          IF    445.000      9.754      0.000      9.754      0.000      0.000      0.000      0.000      0.723      0.000
          ET      0.000      0.000      0.000      0.000      0.000      0.000      0.000      0.000      0.000      0.000
1


            END        END      FETCH SURGE ELEV SURGE ELEV    INITIAL    INITIAL                BOTTOM    AVERAGE
        STATION  ELEVATION     LENGTH    10-YEAR   100-YEAR WAVE HEIGHT  W. PERIOD                SLOPE    A-ZONES
  IE      0.000    -16.829      1.000      1.000      9.024      9.375      9.618     56.140     -0.033      0.000


            END        END  NEW SURGE  NEW SURGE                                                 BOTTOM    AVERAGE
        STATION  ELEVATION    10-YEAR   100-YEAR                                                  SLOPE    A-ZONES
  OF      1.000    -16.862      0.000      9.024      0.000      0.000      0.000      0.000     -0.032      0.000


            END        END  NEW SURGE  NEW SURGE                                                 BOTTOM    AVERAGE
        STATION  ELEVATION    10-YEAR   100-YEAR                                                  SLOPE    A-ZONES
  OF      2.000    -16.894      0.000      9.024      0.000      0.000      0.000      0.000     -0.032      0.000


            END        END  NEW SURGE  NEW SURGE                                                 BOTTOM    AVERAGE
        STATION  ELEVATION    10-YEAR   100-YEAR                                                  SLOPE    A-ZONES
  OF      3.000    -16.927      0.000      9.024      0.000      0.000      0.000      0.000     -0.032      0.000


            END        END  NEW SURGE  NEW SURGE                                                 BOTTOM    AVERAGE
        STATION  ELEVATION    10-YEAR   100-YEAR                                                  SLOPE    A-ZONES
  OF      4.000    -16.959      0.000      9.024      0.000      0.000      0.000      0.000     -0.032      0.000


            END        END  NEW SURGE  NEW SURGE                                                 BOTTOM    AVERAGE
        STATION  ELEVATION    10-YEAR   100-YEAR                                                  SLOPE    A-ZONES
  OF      5.000    -16.992      0.000      9.024      0.000      0.000      0.000      0.000     -0.032      0.000


            END        END  NEW SURGE  NEW SURGE                                                 BOTTOM    AVERAGE
        STATION  ELEVATION    10-YEAR   100-YEAR                                                  SLOPE    A-ZONES
  OF      6.000    -17.024      0.000      9.024      0.000      0.000      0.000      0.000     -0.032      0.000


            END        END  NEW SURGE  NEW SURGE                                                 BOTTOM    AVERAGE
        STATION  ELEVATION    10-YEAR   100-YEAR                                                  SLOPE    A-ZONES
  OF      7.000    -17.056      0.000      9.024      0.000      0.000      0.000      0.000     -0.032      0.000


            END        END  NEW SURGE  NEW SURGE                                                 BOTTOM    AVERAGE
        STATION  ELEVATION    10-YEAR   100-YEAR                                                  SLOPE    A-ZONES
  OF      8.000    -17.089      0.000      9.024      0.000      0.000      0.000      0.000     -0.032      0.000


            END        END  NEW SURGE  NEW SURGE                                                 BOTTOM    AVERAGE
        STATION  ELEVATION    10-YEAR   100-YEAR                                                  SLOPE    A-ZONES
  OF      9.000    -17.120      0.000      9.024      0.000      0.000      0.000      0.000     -0.030      0.000


            END        END  NEW SURGE  NEW SURGE                                                 BOTTOM    AVERAGE
        STATION  ELEVATION    10-YEAR   100-YEAR                                                  SLOPE    A-ZONES
  OF     10.000    -17.148      0.000      9.024      0.000      0.000      0.000      0.000     -0.027      0.000


            END        END  NEW SURGE  NEW SURGE                                                 BOTTOM    AVERAGE
        STATION  ELEVATION    10-YEAR   100-YEAR                                                  SLOPE    A-ZONES
  OF     11.000    -17.175      0.000      9.024      0.000      0.000      0.000      0.000     -0.027      0.000


            END        END  NEW SURGE  NEW SURGE                                                 BOTTOM    AVERAGE
        STATION  ELEVATION    10-YEAR   100-YEAR                                                  SLOPE    A-ZONES
  OF     12.000    -17.203      0.000      9.024      0.000      0.000      0.000      0.000     -0.027      0.000


            END        END  NEW SURGE  NEW SURGE                                                 BOTTOM    AVERAGE
        STATION  ELEVATION    10-YEAR   100-YEAR                                                  SLOPE    A-ZONES
  OF     13.000    -17.230      0.000      9.024      0.000      0.000      0.000      0.000     -0.027      0.000


            END        END  NEW SURGE  NEW SURGE                                                 BOTTOM    AVERAGE
        STATION  ELEVATION    10-YEAR   100-YEAR                                                  SLOPE    A-ZONES
  OF     14.000    -17.258      0.000      9.024      0.000      0.000      0.000      0.000     -0.027      0.000


            END        END  NEW SURGE  NEW SURGE                                                 BOTTOM    AVERAGE
        STATION  ELEVATION    10-YEAR   100-YEAR                                                  SLOPE    A-ZONES
  OF     15.000    -17.285      0.000      9.024      0.000      0.000      0.000      0.000     -0.027      0.000


            END        END  NEW SURGE  NEW SURGE                                                 BOTTOM    AVERAGE
        STATION  ELEVATION    10-YEAR   100-YEAR                                                  SLOPE    A-ZONES
  OF     16.000    -17.313      0.000      9.024      0.000      0.000      0.000      0.000     -0.027      0.000


            END        END  NEW SURGE  NEW SURGE                                                 BOTTOM    AVERAGE
        STATION  ELEVATION    10-YEAR   100-YEAR                                                  SLOPE    A-ZONES
  OF     17.000    -17.340      0.000      9.024      0.000      0.000      0.000      0.000     -0.027      0.000


            END        END  NEW SURGE  NEW SURGE                                                 BOTTOM    AVERAGE
        STATION  ELEVATION    10-YEAR   100-YEAR                                                  SLOPE    A-ZONES
  OF     18.000    -17.368      0.000      9.024      0.000      0.000      0.000      0.000     -0.027      0.000


            END        END  NEW SURGE  NEW SURGE                                                 BOTTOM    AVERAGE
        STATION  ELEVATION    10-YEAR   100-YEAR                                                  SLOPE    A-ZONES
  OF     19.000    -17.395      0.000      9.024      0.000      0.000      0.000      0.000     -0.027      0.000


            END        END  NEW SURGE  NEW SURGE                                                 BOTTOM    AVERAGE
        STATION  ELEVATION    10-YEAR   100-YEAR                                                  SLOPE    A-ZONES
  OF     20.000    -17.423      0.000      9.024      0.000      0.000      0.000      0.000     -0.027      0.000


            END        END  NEW SURGE  NEW SURGE                                                 BOTTOM    AVERAGE
        STATION  ELEVATION    10-YEAR   100-YEAR                                                  SLOPE    A-ZONES
  OF     21.000    -17.450      0.000      9.024      0.000      0.000      0.000      0.000     -0.027      0.000


            END        END  NEW SURGE  NEW SURGE                                                 BOTTOM    AVERAGE
        STATION  ELEVATION    10-YEAR   100-YEAR                                                  SLOPE    A-ZONES
  OF     22.000    -17.478      0.000      9.024      0.000      0.000      0.000      0.000     -0.027      0.000


            END        END  NEW SURGE  NEW SURGE                                                 BOTTOM    AVERAGE
        STATION  ELEVATION    10-YEAR   100-YEAR                                                  SLOPE    A-ZONES
  OF     23.000    -17.505      0.000      9.024      0.000      0.000      0.000      0.000     -0.027      0.000


            END        END  NEW SURGE  NEW SURGE                                                 BOTTOM    AVERAGE
        STATION  ELEVATION    10-YEAR   100-YEAR                                                  SLOPE    A-ZONES
  OF     24.000    -17.533      0.000      9.024      0.000      0.000      0.000      0.000     -0.027      0.000


            END        END  NEW SURGE  NEW SURGE                                                 BOTTOM    AVERAGE
        STATION  ELEVATION    10-YEAR   100-YEAR                                                  SLOPE    A-ZONES
  OF     25.000    -17.560      0.000      9.024      0.000      0.000      0.000      0.000     -0.027      0.000


            END        END  NEW SURGE  NEW SURGE                                                 BOTTOM    AVERAGE
        STATION  ELEVATION    10-YEAR   100-YEAR                                                  SLOPE    A-ZONES
  OF     26.000    -17.588      0.000      9.024      0.000      0.000      0.000      0.000     -0.027      0.000


            END        END  NEW SURGE  NEW SURGE                                                 BOTTOM    AVERAGE
        STATION  ELEVATION    10-YEAR   100-YEAR                                                  SLOPE    A-ZONES
  OF     27.000    -17.615      0.000      9.024      0.000      0.000      0.000      0.000     -0.027      0.000


            END        END  NEW SURGE  NEW SURGE                                                 BOTTOM    AVERAGE
        STATION  ELEVATION    10-YEAR   100-YEAR                                                  SLOPE    A-ZONES
  OF     28.000    -17.643      0.000      9.024      0.000      0.000      0.000      0.000     -0.027      0.000


            END        END  NEW SURGE  NEW SURGE                                                 BOTTOM    AVERAGE
        STATION  ELEVATION    10-YEAR   100-YEAR                                                  SLOPE    A-ZONES
  OF     29.000    -17.670      0.000      9.024      0.000      0.000      0.000      0.000      0.011      0.000


            END        END  NEW SURGE  NEW SURGE                                                 BOTTOM    AVERAGE
        STATION  ELEVATION    10-YEAR   100-YEAR                                                  SLOPE    A-ZONES
  OF     30.000    -17.621      0.000      9.024      0.000      0.000      0.000      0.000      0.053      0.000


            END        END  NEW SURGE  NEW SURGE                                                 BOTTOM    AVERAGE
        STATION  ELEVATION    10-YEAR   100-YEAR                                                  SLOPE    A-ZONES
  OF     31.000    -17.564      0.000      9.024      0.000      0.000      0.000      0.000      0.058      0.000


            END        END  NEW SURGE  NEW SURGE                                                 BOTTOM    AVERAGE
        STATION  ELEVATION    10-YEAR   100-YEAR                                                  SLOPE    A-ZONES
  OF     32.000    -17.506      0.000      9.024      0.000      0.000      0.000      0.000      0.058      0.000


            END        END  NEW SURGE  NEW SURGE                                                 BOTTOM    AVERAGE
        STATION  ELEVATION    10-YEAR   100-YEAR                                                  SLOPE    A-ZONES
  OF     33.000    -17.449      0.000      9.024      0.000      0.000      0.000      0.000      0.057      0.000


            END        END  NEW SURGE  NEW SURGE                                                 BOTTOM    AVERAGE
        STATION  ELEVATION    10-YEAR   100-YEAR                                                  SLOPE    A-ZONES
  OF     34.000    -17.392      0.000      9.024      0.000      0.000      0.000      0.000      0.058      0.000


            END        END  NEW SURGE  NEW SURGE                                                 BOTTOM    AVERAGE
        STATION  ELEVATION    10-YEAR   100-YEAR                                                  SLOPE    A-ZONES
  OF     35.000    -17.334      0.000      9.024      0.000      0.000      0.000      0.000      0.058      0.000


            END        END  NEW SURGE  NEW SURGE                                                 BOTTOM    AVERAGE
        STATION  ELEVATION    10-YEAR   100-YEAR                                                  SLOPE    A-ZONES
  OF     36.000    -17.277      0.000      9.024      0.000      0.000      0.000      0.000      0.058      0.000


            END        END  NEW SURGE  NEW SURGE                                                 BOTTOM    AVERAGE
        STATION  ELEVATION    10-YEAR   100-YEAR                                                  SLOPE    A-ZONES
  OF     37.000    -17.219      0.000      9.024      0.000      0.000      0.000      0.000      0.058      0.000


            END        END  NEW SURGE  NEW SURGE                                                 BOTTOM    AVERAGE
        STATION  ELEVATION    10-YEAR   100-YEAR                                                  SLOPE    A-ZONES
  OF     38.000    -17.162      0.000      9.024      0.000      0.000      0.000      0.000      0.057      0.000


            END        END  NEW SURGE  NEW SURGE                                                 BOTTOM    AVERAGE
        STATION  ELEVATION    10-YEAR   100-YEAR                                                  SLOPE    A-ZONES
  OF     39.000    -17.105      0.000      9.024      0.000      0.000      0.000      0.000      0.058      0.000


            END        END  NEW SURGE  NEW SURGE                                                 BOTTOM    AVERAGE
        STATION  ELEVATION    10-YEAR   100-YEAR                                                  SLOPE    A-ZONES
  OF     40.000    -17.047      0.000      9.024      0.000      0.000      0.000      0.000      0.058      0.000


            END        END  NEW SURGE  NEW SURGE                                                 BOTTOM    AVERAGE
        STATION  ELEVATION    10-YEAR   100-YEAR                                                  SLOPE    A-ZONES
  OF     41.000    -16.990      0.000      9.024      0.000      0.000      0.000      0.000      0.058      0.000


            END        END  NEW SURGE  NEW SURGE                                                 BOTTOM    AVERAGE
        STATION  ELEVATION    10-YEAR   100-YEAR                                                  SLOPE    A-ZONES
  OF     42.000    -16.932      0.000      9.024      0.000      0.000      0.000      0.000      0.058      0.000


            END        END  NEW SURGE  NEW SURGE                                                 BOTTOM    AVERAGE
        STATION  ELEVATION    10-YEAR   100-YEAR                                                  SLOPE    A-ZONES
  OF     43.000    -16.875      0.000      9.024      0.000      0.000      0.000      0.000      0.057      0.000


            END        END  NEW SURGE  NEW SURGE                                                 BOTTOM    AVERAGE
        STATION  ELEVATION    10-YEAR   100-YEAR                                                  SLOPE    A-ZONES
  OF     44.000    -16.818      0.000      9.024      0.000      0.000      0.000      0.000      0.058      0.000


            END        END  NEW SURGE  NEW SURGE                                                 BOTTOM    AVERAGE
        STATION  ELEVATION    10-YEAR   100-YEAR                                                  SLOPE    A-ZONES
  OF     45.000    -16.760      0.000      9.024      0.000      0.000      0.000      0.000      0.058      0.000


            END        END  NEW SURGE  NEW SURGE                                                 BOTTOM    AVERAGE
        STATION  ELEVATION    10-YEAR   100-YEAR                                                  SLOPE    A-ZONES
  OF     46.000    -16.703      0.000      9.024      0.000      0.000      0.000      0.000      0.058      0.000


            END        END  NEW SURGE  NEW SURGE                                                 BOTTOM    AVERAGE
        STATION  ELEVATION    10-YEAR   100-YEAR                                                  SLOPE    A-ZONES
  OF     47.000    -16.645      0.000      9.024      0.000      0.000      0.000      0.000      0.058      0.000


            END        END  NEW SURGE  NEW SURGE                                                 BOTTOM    AVERAGE
        STATION  ELEVATION    10-YEAR   100-YEAR                                                  SLOPE    A-ZONES
  OF     48.000    -16.588      0.000      9.024      0.000      0.000      0.000      0.000      0.056      0.000


            END        END  NEW SURGE  NEW SURGE                                                 BOTTOM    AVERAGE
        STATION  ELEVATION    10-YEAR   100-YEAR                                                  SLOPE    A-ZONES
  OF     49.000    -16.533      0.000      9.024      0.000      0.000      0.000      0.000      0.054      0.000


            END        END  NEW SURGE  NEW SURGE                                                 BOTTOM    AVERAGE
        STATION  ELEVATION    10-YEAR   100-YEAR                                                  SLOPE    A-ZONES
  OF     50.000    -16.481      0.000      9.024      0.000      0.000      0.000      0.000      0.052      0.000


            END        END  NEW SURGE  NEW SURGE                                                 BOTTOM    AVERAGE
        STATION  ELEVATION    10-YEAR   100-YEAR                                                  SLOPE    A-ZONES
  OF     51.000    -16.430      0.000      9.024      0.000      0.000      0.000      0.000      0.052      0.000


            END        END  NEW SURGE  NEW SURGE                                                 BOTTOM    AVERAGE
        STATION  ELEVATION    10-YEAR   100-YEAR                                                  SLOPE    A-ZONES
  OF     52.000    -16.378      0.000      9.024      0.000      0.000      0.000      0.000      0.052      0.000


            END        END  NEW SURGE  NEW SURGE                                                 BOTTOM    AVERAGE
        STATION  ELEVATION    10-YEAR   100-YEAR                                                  SLOPE    A-ZONES
  OF     53.000    -16.327      0.000      9.024      0.000      0.000      0.000      0.000      0.052      0.000


            END        END  NEW SURGE  NEW SURGE                                                 BOTTOM    AVERAGE
        STATION  ELEVATION    10-YEAR   100-YEAR                                                  SLOPE    A-ZONES
  OF     54.000    -16.275      0.000      9.024      0.000      0.000      0.000      0.000      0.052      0.000


            END        END  NEW SURGE  NEW SURGE                                                 BOTTOM    AVERAGE
        STATION  ELEVATION    10-YEAR   100-YEAR                                                  SLOPE    A-ZONES
  OF     55.000    -16.224      0.000      9.024      0.000      0.000      0.000      0.000      0.052      0.000


            END        END  NEW SURGE  NEW SURGE                                                 BOTTOM    AVERAGE
        STATION  ELEVATION    10-YEAR   100-YEAR                                                  SLOPE    A-ZONES
  OF     56.000    -16.172      0.000      9.024      0.000      0.000      0.000      0.000      0.052      0.000


            END        END  NEW SURGE  NEW SURGE                                                 BOTTOM    AVERAGE
        STATION  ELEVATION    10-YEAR   100-YEAR                                                  SLOPE    A-ZONES
  OF     57.000    -16.121      0.000      9.024      0.000      0.000      0.000      0.000      0.052      0.000


            END        END  NEW SURGE  NEW SURGE                                                 BOTTOM    AVERAGE
        STATION  ELEVATION    10-YEAR   100-YEAR                                                  SLOPE    A-ZONES
  OF     58.000    -16.069      0.000      9.024      0.000      0.000      0.000      0.000      0.052      0.000


            END        END  NEW SURGE  NEW SURGE                                                 BOTTOM    AVERAGE
        STATION  ELEVATION    10-YEAR   100-YEAR                                                  SLOPE    A-ZONES
  OF     59.000    -16.018      0.000      9.024      0.000      0.000      0.000      0.000      0.052      0.000


            END        END  NEW SURGE  NEW SURGE                                                 BOTTOM    AVERAGE
        STATION  ELEVATION    10-YEAR   100-YEAR                                                  SLOPE    A-ZONES
  OF     60.000    -15.966      0.000      9.024      0.000      0.000      0.000      0.000      0.052      0.000


            END        END  NEW SURGE  NEW SURGE                                                 BOTTOM    AVERAGE
        STATION  ELEVATION    10-YEAR   100-YEAR                                                  SLOPE    A-ZONES
  OF     61.000    -15.915      0.000      9.024      0.000      0.000      0.000      0.000      0.052      0.000


            END        END  NEW SURGE  NEW SURGE                                                 BOTTOM    AVERAGE
        STATION  ELEVATION    10-YEAR   100-YEAR                                                  SLOPE    A-ZONES
  OF     62.000    -15.863      0.000      9.024      0.000      0.000      0.000      0.000      0.052      0.000


            END        END  NEW SURGE  NEW SURGE                                                 BOTTOM    AVERAGE
        STATION  ELEVATION    10-YEAR   100-YEAR                                                  SLOPE    A-ZONES
  OF     63.000    -15.812      0.000      9.024      0.000      0.000      0.000      0.000      0.051      0.000


            END        END  NEW SURGE  NEW SURGE                                                 BOTTOM    AVERAGE
        STATION  ELEVATION    10-YEAR   100-YEAR                                                  SLOPE    A-ZONES
  OF     64.000    -15.761      0.000      9.024      0.000      0.000      0.000      0.000      0.052      0.000


            END        END  NEW SURGE  NEW SURGE                                                 BOTTOM    AVERAGE
        STATION  ELEVATION    10-YEAR   100-YEAR                                                  SLOPE    A-ZONES
  OF     65.000    -15.709      0.000      9.024      0.000      0.000      0.000      0.000      0.052      0.000


            END        END  NEW SURGE  NEW SURGE                                                 BOTTOM    AVERAGE
        STATION  ELEVATION    10-YEAR   100-YEAR                                                  SLOPE    A-ZONES
  OF     66.000    -15.658      0.000      9.024      0.000      0.000      0.000      0.000      0.052      0.000


            END        END  NEW SURGE  NEW SURGE                                                 BOTTOM    AVERAGE
        STATION  ELEVATION    10-YEAR   100-YEAR                                                  SLOPE    A-ZONES
  OF     67.000    -15.606      0.000      9.024      0.000      0.000      0.000      0.000      0.052      0.000


            END        END  NEW SURGE  NEW SURGE                                                 BOTTOM    AVERAGE
        STATION  ELEVATION    10-YEAR   100-YEAR                                                  SLOPE    A-ZONES
  OF     68.000    -15.555      0.000      9.024      0.000      0.000      0.000      0.000      0.052      0.000


            END        END  NEW SURGE  NEW SURGE                                                 BOTTOM    AVERAGE
        STATION  ELEVATION    10-YEAR   100-YEAR                                                  SLOPE    A-ZONES
  OF     69.000    -15.503      0.000      9.024      0.000      0.000      0.000      0.000      0.052      0.000


            END        END  NEW SURGE  NEW SURGE                                                 BOTTOM    AVERAGE
        STATION  ELEVATION    10-YEAR   100-YEAR                                                  SLOPE    A-ZONES
  OF     70.000    -15.452      0.000      9.024      0.000      0.000      0.000      0.000      0.052      0.000


            END        END  NEW SURGE  NEW SURGE                                                 BOTTOM    AVERAGE
        STATION  ELEVATION    10-YEAR   100-YEAR                                                  SLOPE    A-ZONES
  OF     71.000    -15.400      0.000      9.024      0.000      0.000      0.000      0.000      0.052      0.000


            END        END  NEW SURGE  NEW SURGE                                                 BOTTOM    AVERAGE
        STATION  ELEVATION    10-YEAR   100-YEAR                                                  SLOPE    A-ZONES
  OF     72.000    -15.349      0.000      9.024      0.000      0.000      0.000      0.000      0.052      0.000


            END        END  NEW SURGE  NEW SURGE                                                 BOTTOM    AVERAGE
        STATION  ELEVATION    10-YEAR   100-YEAR                                                  SLOPE    A-ZONES
  OF     73.000    -15.297      0.000      9.024      0.000      0.000      0.000      0.000      0.052      0.000


            END        END  NEW SURGE  NEW SURGE                                                 BOTTOM    AVERAGE
        STATION  ELEVATION    10-YEAR   100-YEAR                                                  SLOPE    A-ZONES
  OF     74.000    -15.246      0.000      9.024      0.000      0.000      0.000      0.000      0.052      0.000


            END        END  NEW SURGE  NEW SURGE                                                 BOTTOM    AVERAGE
        STATION  ELEVATION    10-YEAR   100-YEAR                                                  SLOPE    A-ZONES
  OF     75.000    -15.194      0.000      9.024      0.000      0.000      0.000      0.000      0.052      0.000


            END        END  NEW SURGE  NEW SURGE                                                 BOTTOM    AVERAGE
        STATION  ELEVATION    10-YEAR   100-YEAR                                                  SLOPE    A-ZONES
  OF     76.000    -15.143      0.000      9.024      0.000      0.000      0.000      0.000      0.052      0.000


            END        END  NEW SURGE  NEW SURGE                                                 BOTTOM    AVERAGE
        STATION  ELEVATION    10-YEAR   100-YEAR                                                  SLOPE    A-ZONES
  OF     77.000    -15.091      0.000      9.024      0.000      0.000      0.000      0.000      0.052      0.000


            END        END  NEW SURGE  NEW SURGE                                                 BOTTOM    AVERAGE
        STATION  ELEVATION    10-YEAR   100-YEAR                                                  SLOPE    A-ZONES
  OF     78.000    -15.040      0.000      9.024      0.000      0.000      0.000      0.000      0.051      0.000


            END        END  NEW SURGE  NEW SURGE                                                 BOTTOM    AVERAGE
        STATION  ELEVATION    10-YEAR   100-YEAR                                                  SLOPE    A-ZONES
  OF     79.000    -14.989      0.000      9.024      0.000      0.000      0.000      0.000      0.052      0.000


            END        END  NEW SURGE  NEW SURGE                                                 BOTTOM    AVERAGE
        STATION  ELEVATION    10-YEAR   100-YEAR                                                  SLOPE    A-ZONES
  OF     80.000    -14.937      0.000      9.024      0.000      0.000      0.000      0.000      0.052      0.000


            END        END  NEW SURGE  NEW SURGE                                                 BOTTOM    AVERAGE
        STATION  ELEVATION    10-YEAR   100-YEAR                                                  SLOPE    A-ZONES
  OF     81.000    -14.886      0.000      9.024      0.000      0.000      0.000      0.000      0.052      0.000


            END        END  NEW SURGE  NEW SURGE                                                 BOTTOM    AVERAGE
        STATION  ELEVATION    10-YEAR   100-YEAR                                                  SLOPE    A-ZONES
  OF     82.000    -14.834      0.000      9.024      0.000      0.000      0.000      0.000      0.052      0.000


            END        END  NEW SURGE  NEW SURGE                                                 BOTTOM    AVERAGE
        STATION  ELEVATION    10-YEAR   100-YEAR                                                  SLOPE    A-ZONES
  OF     83.000    -14.783      0.000      9.024      0.000      0.000      0.000      0.000      0.052      0.000


            END        END  NEW SURGE  NEW SURGE                                                 BOTTOM    AVERAGE
        STATION  ELEVATION    10-YEAR   100-YEAR                                                  SLOPE    A-ZONES
  OF     84.000    -14.731      0.000      9.024      0.000      0.000      0.000      0.000      0.052      0.000


            END        END  NEW SURGE  NEW SURGE                                                 BOTTOM    AVERAGE
        STATION  ELEVATION    10-YEAR   100-YEAR                                                  SLOPE    A-ZONES
  OF     85.000    -14.680      0.000      9.024      0.000      0.000      0.000      0.000      0.052      0.000


            END        END  NEW SURGE  NEW SURGE                                                 BOTTOM    AVERAGE
        STATION  ELEVATION    10-YEAR   100-YEAR                                                  SLOPE    A-ZONES
  OF     86.000    -14.628      0.000      9.024      0.000      0.000      0.000      0.000      0.052      0.000


            END        END  NEW SURGE  NEW SURGE                                                 BOTTOM    AVERAGE
        STATION  ELEVATION    10-YEAR   100-YEAR                                                  SLOPE    A-ZONES
  OF     87.000    -14.577      0.000      9.024      0.000      0.000      0.000      0.000      0.052      0.000


            END        END  NEW SURGE  NEW SURGE                                                 BOTTOM    AVERAGE
        STATION  ELEVATION    10-YEAR   100-YEAR                                                  SLOPE    A-ZONES
  OF     88.000    -14.525      0.000      9.024      0.000      0.000      0.000      0.000      0.052      0.000


            END        END  NEW SURGE  NEW SURGE                                                 BOTTOM    AVERAGE
        STATION  ELEVATION    10-YEAR   100-YEAR                                                  SLOPE    A-ZONES
  OF     89.000    -14.474      0.000      9.024      0.000      0.000      0.000      0.000      0.052      0.000


            END        END  NEW SURGE  NEW SURGE                                                 BOTTOM    AVERAGE
        STATION  ELEVATION    10-YEAR   100-YEAR                                                  SLOPE    A-ZONES
  OF     90.000    -14.422      0.000      9.024      0.000      0.000      0.000      0.000      0.052      0.000


            END        END  NEW SURGE  NEW SURGE                                                 BOTTOM    AVERAGE
        STATION  ELEVATION    10-YEAR   100-YEAR                                                  SLOPE    A-ZONES
  OF     91.000    -14.371      0.000      9.024      0.000      0.000      0.000      0.000      0.052      0.000


            END        END  NEW SURGE  NEW SURGE                                                 BOTTOM    AVERAGE
        STATION  ELEVATION    10-YEAR   100-YEAR                                                  SLOPE    A-ZONES
  OF     92.000    -14.319      0.000      9.024      0.000      0.000      0.000      0.000      0.052      0.000


            END        END  NEW SURGE  NEW SURGE                                                 BOTTOM    AVERAGE
        STATION  ELEVATION    10-YEAR   100-YEAR                                                  SLOPE    A-ZONES
  OF     93.000    -14.268      0.000      9.024      0.000      0.000      0.000      0.000      0.051      0.000


            END        END  NEW SURGE  NEW SURGE                                                 BOTTOM    AVERAGE
        STATION  ELEVATION    10-YEAR   100-YEAR                                                  SLOPE    A-ZONES
  OF     94.000    -14.217      0.000      9.024      0.000      0.000      0.000      0.000      0.052      0.000


            END        END  NEW SURGE  NEW SURGE                                                 BOTTOM    AVERAGE
        STATION  ELEVATION    10-YEAR   100-YEAR                                                  SLOPE    A-ZONES
  OF     95.000    -14.165      0.000      9.024      0.000      0.000      0.000      0.000      0.052      0.000


            END        END  NEW SURGE  NEW SURGE                                                 BOTTOM    AVERAGE
        STATION  ELEVATION    10-YEAR   100-YEAR                                                  SLOPE    A-ZONES
  OF     96.000    -14.114      0.000      9.024      0.000      0.000      0.000      0.000      0.052      0.000


            END        END  NEW SURGE  NEW SURGE                                                 BOTTOM    AVERAGE
        STATION  ELEVATION    10-YEAR   100-YEAR                                                  SLOPE    A-ZONES
  OF     97.000    -14.062      0.000      9.024      0.000      0.000      0.000      0.000      0.052      0.000


            END        END  NEW SURGE  NEW SURGE                                                 BOTTOM    AVERAGE
        STATION  ELEVATION    10-YEAR   100-YEAR                                                  SLOPE    A-ZONES
  OF     98.000    -14.011      0.000      9.024      0.000      0.000      0.000      0.000      0.052      0.000


            END        END  NEW SURGE  NEW SURGE                                                 BOTTOM    AVERAGE
        STATION  ELEVATION    10-YEAR   100-YEAR                                                  SLOPE    A-ZONES
  OF     99.000    -13.959      0.000      9.024      0.000      0.000      0.000      0.000      0.052      0.000


            END        END  NEW SURGE  NEW SURGE                                                 BOTTOM    AVERAGE
        STATION  ELEVATION    10-YEAR   100-YEAR                                                  SLOPE    A-ZONES
  OF    100.000    -13.908      0.000      9.024      0.000      0.000      0.000      0.000      0.052      0.000


            END        END  NEW SURGE  NEW SURGE                                                 BOTTOM    AVERAGE
        STATION  ELEVATION    10-YEAR   100-YEAR                                                  SLOPE    A-ZONES
  OF    101.000    -13.856      0.000      9.024      0.000      0.000      0.000      0.000      0.052      0.000


            END        END  NEW SURGE  NEW SURGE                                                 BOTTOM    AVERAGE
        STATION  ELEVATION    10-YEAR   100-YEAR                                                  SLOPE    A-ZONES
  OF    102.000    -13.805      0.000      9.024      0.000      0.000      0.000      0.000      0.052      0.000


            END        END  NEW SURGE  NEW SURGE                                                 BOTTOM    AVERAGE
        STATION  ELEVATION    10-YEAR   100-YEAR                                                  SLOPE    A-ZONES
  OF    103.000    -13.753      0.000      9.024      0.000      0.000      0.000      0.000      0.052      0.000


            END        END  NEW SURGE  NEW SURGE                                                 BOTTOM    AVERAGE
        STATION  ELEVATION    10-YEAR   100-YEAR                                                  SLOPE    A-ZONES
  OF    104.000    -13.702      0.000      9.024      0.000      0.000      0.000      0.000      0.052      0.000


            END        END  NEW SURGE  NEW SURGE                                                 BOTTOM    AVERAGE
        STATION  ELEVATION    10-YEAR   100-YEAR                                                  SLOPE    A-ZONES
  OF    105.000    -13.650      0.000      9.024      0.000      0.000      0.000      0.000      0.052      0.000


            END        END  NEW SURGE  NEW SURGE                                                 BOTTOM    AVERAGE
        STATION  ELEVATION    10-YEAR   100-YEAR                                                  SLOPE    A-ZONES
  OF    106.000    -13.599      0.000      9.024      0.000      0.000      0.000      0.000      0.052      0.000


            END        END  NEW SURGE  NEW SURGE                                                 BOTTOM    AVERAGE
        STATION  ELEVATION    10-YEAR   100-YEAR                                                  SLOPE    A-ZONES
  OF    107.000    -13.547      0.000      9.024      0.000      0.000      0.000      0.000      0.052      0.000


            END        END  NEW SURGE  NEW SURGE                                                 BOTTOM    AVERAGE
        STATION  ELEVATION    10-YEAR   100-YEAR                                                  SLOPE    A-ZONES
  OF    108.000    -13.496      0.000      9.024      0.000      0.000      0.000      0.000      0.051      0.000


            END        END  NEW SURGE  NEW SURGE                                                 BOTTOM    AVERAGE
        STATION  ELEVATION    10-YEAR   100-YEAR                                                  SLOPE    A-ZONES
  OF    109.000    -13.445      0.000      9.024      0.000      0.000      0.000      0.000      0.052      0.000


            END        END  NEW SURGE  NEW SURGE                                                 BOTTOM    AVERAGE
        STATION  ELEVATION    10-YEAR   100-YEAR                                                  SLOPE    A-ZONES
  OF    110.000    -13.393      0.000      9.024      0.000      0.000      0.000      0.000      0.052      0.000


            END        END  NEW SURGE  NEW SURGE                                                 BOTTOM    AVERAGE
        STATION  ELEVATION    10-YEAR   100-YEAR                                                  SLOPE    A-ZONES
  OF    111.000    -13.342      0.000      9.024      0.000      0.000      0.000      0.000      0.052      0.000


            END        END  NEW SURGE  NEW SURGE                                                 BOTTOM    AVERAGE
        STATION  ELEVATION    10-YEAR   100-YEAR                                                  SLOPE    A-ZONES
  OF    112.000    -13.290      0.000      9.024      0.000      0.000      0.000      0.000      0.052      0.000


            END        END  NEW SURGE  NEW SURGE                                                 BOTTOM    AVERAGE
        STATION  ELEVATION    10-YEAR   100-YEAR                                                  SLOPE    A-ZONES
  OF    113.000    -13.239      0.000      9.024      0.000      0.000      0.000      0.000      0.062      0.000


            END        END  NEW SURGE  NEW SURGE                                                 BOTTOM    AVERAGE
        STATION  ELEVATION    10-YEAR   100-YEAR                                                  SLOPE    A-ZONES
  OF    114.000    -13.167      0.000      9.024      0.000      0.000      0.000      0.000      0.084      0.000


            END        END  NEW SURGE  NEW SURGE                                                 BOTTOM    AVERAGE
        STATION  ELEVATION    10-YEAR   100-YEAR                                                  SLOPE    A-ZONES
  OF    115.000    -13.071      0.000      9.024      0.000      0.000      0.000      0.000      0.097      0.000


            END        END  NEW SURGE  NEW SURGE                                                 BOTTOM    AVERAGE
        STATION  ELEVATION    10-YEAR   100-YEAR                                                  SLOPE    A-ZONES
  OF    116.000    -12.974      0.000      9.024      0.000      0.000      0.000      0.000      0.097      0.000


            END        END  NEW SURGE  NEW SURGE                                                 BOTTOM    AVERAGE
        STATION  ELEVATION    10-YEAR   100-YEAR                                                  SLOPE    A-ZONES
  OF    117.000    -12.877      0.000      9.024      0.000      0.000      0.000      0.000      0.097      0.000


            END        END  NEW SURGE  NEW SURGE                                                 BOTTOM    AVERAGE
        STATION  ELEVATION    10-YEAR   100-YEAR                                                  SLOPE    A-ZONES
  OF    118.000    -12.780      0.000      9.024      0.000      0.000      0.000      0.000      0.097      0.000


            END        END  NEW SURGE  NEW SURGE                                                 BOTTOM    AVERAGE
        STATION  ELEVATION    10-YEAR   100-YEAR                                                  SLOPE    A-ZONES
[...]

                                        OF     165.00        10.42         9.62        16.32

                                        OF     166.00        10.41         9.62        16.31

                                        OF     167.00        10.40         9.62        16.30

                                        OF     168.00        10.39         9.62        16.29

                                        OF     169.00        10.38         9.62        16.29

                                        OF     170.00        10.36         9.62        16.28

                                        OF     171.00        10.35         9.62        16.27

                                        OF     172.00        10.34         9.62        16.26

                                        OF     173.00        10.33         9.62        16.25

                                        OF     174.00        10.31         9.62        16.24

                                        OF     175.00        10.30         9.62        16.23

                                        OF     176.00        10.29         9.62        16.22

                                        OF     177.00        10.27         9.62        16.21

                                        OF     178.00        10.26         9.62        16.21

                                        OF     179.00        10.25         9.62        16.20

                                        OF     180.00        10.23         9.62        16.19

                                        OF     181.00        10.22         9.62        16.18

                                        OF     182.00        10.20         9.62        16.17

                                        OF     183.00        10.20         9.62        16.16

                                        OF     184.00        10.21         9.62        16.17

                                        OF     185.00        10.22         9.62        16.18

                                        OF     186.00        10.23         9.62        16.18

                                        OF     187.00        10.24         9.62        16.19

                                        OF     188.00        10.25         9.62        16.20

                                        OF     189.00        10.26         9.62        16.20

                                        OF     190.00        10.27         9.62        16.21

                                        OF     191.00        10.28         9.62        16.22

                                        OF     192.00        10.29         9.62        16.22

                                        OF     193.00        10.30         9.62        16.23

                                        OF     194.00        10.30         9.62        16.24

                                        OF     195.00        10.31         9.62        16.24

                                        OF     196.00        10.32         9.62        16.25

                                        OF     197.00        10.33         9.62        16.26

                                        OF     198.00        10.34         9.62        16.26

                                        OF     199.00        10.35         9.62        16.27

                                        OF     200.00        10.36         9.62        16.27

                                        OF     201.00        10.37         9.62        16.28

                                        OF     202.00        10.38         9.62        16.29

                                        OF     203.00        10.39         9.62        16.29

                                        OF     204.00        10.40         9.62        16.30

                                        OF     205.00        10.41         9.62        16.31

                                        OF     206.00        10.42         9.62        16.31

                                        OF     207.00        10.42         9.62        16.32

                                        OF     208.00        10.43         9.62        16.33

                                        OF     209.00        10.44         9.62        16.33

                                        OF     210.00        10.45         9.62        16.34

                                        OF     211.00        10.46         9.62        16.34

                                        OF     212.00        10.47         9.62        16.35

                                        OF     213.00        10.48         9.62        16.36

                                        OF     214.00        10.49         9.62        16.36

                                        OF     215.00        10.50         9.62        16.37

                                        OF     216.00        10.51         9.62        16.38

                                        OF     217.00        10.51         9.62        16.38

                                        OF     218.00        10.52         9.62        16.39

                                        OF     219.00        10.53         9.62        16.39

                                        OF     220.00        10.54         9.62        16.40

                                        OF     221.00        10.55         9.62        16.41

                                        OF     222.00        10.56         9.62        16.41

                                        OF     223.00        10.57         9.62        16.42

                                        OF     224.00        10.58         9.62        16.42

                                        OF     225.00        10.58         9.62        16.43

                                        OF     226.00        10.59         9.62        16.44

                                        OF     227.00        10.60         9.62        16.44

                                        OF     228.00        10.61         9.62        16.45

                                        OF     229.00        10.61         9.62        16.45

                                        OF     230.00        10.61         9.62        16.45

                                        OF     231.00        10.60         9.62        16.44

                                        OF     232.00        10.60         9.62        16.44

                                        OF     233.00        10.59         9.62        16.43

                                        OF     234.00        10.58         9.62        16.43

                                        OF     235.00        10.58         9.62        16.43

                                        OF     236.00        10.57         9.62        16.42

                                        OF     237.00        10.57         9.62        16.42

                                        OF     238.00        10.56         9.62        16.41

                                        OF     239.00        10.55         9.62        16.41

                                        OF     240.00        10.55         9.62        16.40

                                        OF     241.00        10.54         9.62        16.40

                                        OF     242.00        10.53         9.62        16.39

                                        OF     243.00        10.53         9.62        16.39

                                        OF     244.00        10.52         9.62        16.39

                                        OF     245.00        10.51         9.62        16.38

                                        OF     246.00        10.51         9.62        16.38

                                        OF     247.00        10.50         9.62        16.37

                                        OF     248.00        10.49         9.62        16.37

                                        OF     249.00        10.49         9.62        16.36

                                        OF     250.00        10.48         9.62        16.36

                                        OF     251.00        10.47         9.62        16.35

                                        OF     252.00        10.47         9.62        16.35

                                        OF     253.00        10.46         9.62        16.34

                                        OF     254.00        10.45         9.62        16.34

                                        OF     255.00        10.45         9.62        16.33

                                        OF     256.00        10.44         9.62        16.33

                                        OF     257.00        10.43         9.62        16.32

                                        OF     258.00        10.43         9.62        16.32

                                        OF     259.00        10.42         9.62        16.32

                                        OF     260.00        10.41         9.62        16.31

                                        OF     261.00        10.41         9.62        16.31

                                        OF     262.00        10.40         9.62        16.30

                                        OF     263.00        10.40         9.62        16.30

                                        OF     264.00        10.39         9.62        16.30

                                        OF     265.00        10.39         9.62        16.29

                                        OF     266.00        10.38         9.62        16.29

                                        OF     267.00        10.38         9.62        16.28

                                        OF     268.00        10.37         9.62        16.28

                                        OF     269.00        10.36         9.62        16.28

                                        OF     270.00        10.36         9.62        16.27

                                        OF     271.00        10.35         9.62        16.27

                                        OF     272.00        10.35         9.62        16.26

                                        OF     273.00        10.34         9.62        16.26

                                        OF     274.00        10.34         9.62        16.26

                                        OF     275.00        10.33         9.62        16.25

                                        OF     276.00        10.32         9.62        16.25

                                        OF     277.00        10.32         9.62        16.24

                                        OF     278.00        10.31         9.62        16.24

                                        OF     279.00        10.30         9.62        16.23

                                        OF     280.00        10.30         9.62        16.23

                                        OF     281.00        10.29         9.62        16.23

                                        OF     282.00        10.29         9.62        16.22

                                        OF     283.00        10.28         9.62        16.22

                                        OF     286.00        10.26         9.62        16.20

                                        OF     287.00        10.26         9.62        16.20

                                        OF     288.00        10.26         9.62        16.20

                                        OF     289.00        10.26         9.62        16.20

                                        OF     290.00        10.26         9.62        16.21

                                        OF     291.00        10.26         9.62        16.21

                                        OF     292.00        10.27         9.62        16.21

                                        OF     293.00        10.27         9.62        16.21

                                        OF     294.00        10.27         9.62        16.21

                                        OF     295.00        10.27         9.62        16.21

                                        OF     296.00        10.28         9.62        16.21

                                               397.76         6.59         9.62        13.64

                                        IF     423.20         5.49         9.62        12.88

                                        IF     426.50         5.27         9.62        12.73

                                        IF     429.80         5.00         9.62        12.55

                                        IF     433.10         4.50         9.62        12.20

                                        IF     436.40         3.77         9.62        11.70

                                        IF     439.60         2.60         9.62        10.93

                                        IF     442.90         1.15         9.62        10.56

                                        IF     444.00         0.56         9.62        10.15

                                        IF     445.00         0.01         9.62         9.76



                                        PART3 LOCATION OF AREAS ABOVE 100-YEAR SURGE

                                        NO AREAS ABOVE 100-YEAR SURGE IN THIS TRANSECT



                                                  PART4 LOCATION OF SURGE CHANGES

                                        STATION          10-YEAR SURGE          100-YEAR SURGE

                                        163.00                 1.00                 9.02

                                        198.00                 1.00                 9.02

                                        230.00                 1.00                 9.02

                                        273.00                 1.00                 9.02

                                        274.00                 1.00                 9.02

                                        288.00                 1.00                 9.02

                                        423.20                 1.00                 9.03

                                        426.50                 1.00                 9.04

                                        429.80                 1.00                 9.05

                                        433.10                 1.00                 9.05

                                        436.40                 1.00                 9.06

                                        439.60                 1.00                 9.11

                                        442.90                 1.00                 9.75



                                                       PART5  LOCATION OF V ZONES

                                             STATION OF GUTTER          LOCATION OF ZONE

                                                      438.50               WINDWARD



                                                   PART6 NUMBERED A ZONES AND V ZONES

                                        STATION OF GUTTER  ELEVATION  ZONE DESIGNATION   FHF


                                               0.00          15.59

                                                                          V22  EL=16     120

                                             162.00          16.34

                                                                          V22  EL=16     120

                                             163.00          16.34

                                                                          V22  EL=16     120

                                             197.00          16.26

                                                                          V22  EL=16     120

                                             198.00          16.26

                                                                          V22  EL=16     120

                                             229.00          16.45

                                                                          V22  EL=16     120

                                             230.00          16.45

                                                                          V22  EL=16     120

                                             272.00          16.26

                                                                          V22  EL=16     120

                                             273.00          16.26

                                                                          V22  EL=16     120

                                             274.00          16.26

                                                                          V22  EL=16     120

                                             287.00          16.20

                                                                          V22  EL=16     120

                                             288.00          16.20

                                                                          V22  EL=16     120

                                             296.00          16.21

                                                                          V22  EL=16     120

                                             324.26          15.50

                                                                          V22  EL=15     120

                                             363.80          14.50

                                                                          V22  EL=14     120

                                             402.46          13.50

                                                                          V22  EL=13     120

                                             423.20          12.88

                                                                          V22  EL=13     120

                                             426.50          12.73

                                                                          V22  EL=13     120

                                             429.80          12.55

                                                                          V22  EL=13     120

                                             430.25          12.50

                                                                          V22  EL=12     120

                                             433.10          12.20

                                                                          V23  EL=12     130

                                             436.40          11.70

                                                                          V23  EL=12     130

                                             437.21          11.50

                                                                          V23  EL=11     130

                                             438.50          11.18

                                                                          A19  EL=11      95

                                             439.60          10.93

                                                                          A19  EL=11      95

                                             442.90          10.56

                                                                          A19  EL=11      95

                                             443.06          10.50

                                                                          A19  EL=10      95

                                             445.00           9.76



                                                  ZONE TERMINATED AT END OF TRANSECT



                                                  PART 7   POSTSCRIPT NOTES


                         PS#  1   START(361191.8955,4771276.21)                                                
                         PS#  2   END(361217.8661,4771469.8232)                                                
